  Page 1                                    Fri Oct 07 15:53:55 2022

  ******************************************************************
  *                           E P A N E T                          *
  *                   Hydraulic and Water Quality                  *
  *                   Analysis for Pipe Networks                   *
  *                         Version 2.2                            *
  ******************************************************************
  
  Pipe	Map	Name:	Pipenet6.shp
  Node	Map	Name:	Epanmap.shp
  Mon	Jul	18	13:25:42	2005
   
      Input Data File ................... id3.inp
      Number of Junctions................ 1574
      Number of Reservoirs............... 2
      Number of Tanks ................... 1
      Number of Pipes ................... 1415
      Number of Pumps ................... 8
      Number of Valves .................. 196
      Headloss Formula .................. Darcy-Weisbach
      Nodal Demand Model ................ DDA
      Hydraulic Timestep ................ 1.00 hrs
      Hydraulic Accuracy ................ 0.001000
      Status Check Frequency ............ 2
      Maximum Trials Checked ............ 10
      Damping Limit Threshold ........... 0.000000
      Maximum Trials .................... 40
      Maximum Trials .................... 40
      Water Quality Time Step ........... 5.00 min
      Water Quality Tolerance ........... 0.01 hrs
      Specific Gravity .................. 1.00
      Relative Kinematic Viscosity ...... 1.00
      Relative Chemical Diffusivity ..... 1.00
      Demand Multiplier ................. 1.00
      Total Duration .................... 23.00 hrs
      Reporting Criteria:
         All Nodes
         No Links
   
  Analysis begun Fri Oct 07 15:53:55 2022

   
  Hydraulic Status:
  -----------------------------------------------------------------------
     0:00:00: Balanced after 38 trials
     0:00:00: Reservoir Aquifer is emptying
     0:00:00: Reservoir SurfaceResrvr is emptying
     0:00:00: Tank Tank is filling at 115.00 ft
   
     0:06:00: Pump HSP#1 changed by rule 7
     0:06:00: Balanced after 5 trials
     0:06:00: Reservoir Aquifer is closed
     0:06:00: Reservoir SurfaceResrvr is closed
     0:06:00: Tank Tank is emptying at 115.38 ft
     0:06:00: CV 1 changed from open to closed
     0:06:00: Pump HSP#1 changed from open to closed
   
  WARNING: Pump WellPump#1 closed because cannot deliver head at 0:06:00 hrs.
  WARNING: Pump WellPump#2 closed because cannot deliver head at 0:06:00 hrs.
  WARNING: Pump WellPump#3 closed because cannot deliver head at 0:06:00 hrs.
  WARNING: Pump WellPump#4 closed because cannot deliver head at 0:06:00 hrs.
  WARNING: Pump ResvrPump closed because cannot deliver head at 0:06:00 hrs.
   
     1:00:00: Balanced after 1 trials
   
  WARNING: Pump WellPump#1 closed because cannot deliver head at 1:00:00 hrs.
  WARNING: Pump WellPump#2 closed because cannot deliver head at 1:00:00 hrs.
  WARNING: Pump WellPump#3 closed because cannot deliver head at 1:00:00 hrs.
  WARNING: Pump WellPump#4 closed because cannot deliver head at 1:00:00 hrs.
   
     2:00:00: Balanced after 2 trials
   
  WARNING: Pump WellPump#1 closed because cannot deliver head at 2:00:00 hrs.
  WARNING: Pump WellPump#2 closed because cannot deliver head at 2:00:00 hrs.
  WARNING: Pump WellPump#3 closed because cannot deliver head at 2:00:00 hrs.
  WARNING: Pump WellPump#4 closed because cannot deliver head at 2:00:00 hrs.
   
     3:00:00: Balanced after 2 trials
   
  WARNING: Pump WellPump#1 closed because cannot deliver head at 3:00:00 hrs.
  WARNING: Pump WellPump#2 closed because cannot deliver head at 3:00:00 hrs.
  WARNING: Pump WellPump#3 closed because cannot deliver head at 3:00:00 hrs.
  WARNING: Pump WellPump#4 closed because cannot deliver head at 3:00:00 hrs.
   
     3:48:00: Pump HSP#3 changed by rule 6
     3:48:00: Balanced after 11 trials
     3:48:00: Reservoir Aquifer is emptying
     3:48:00: Reservoir SurfaceResrvr is emptying
     3:48:00: Tank Tank is filling at 109.96 ft
     3:48:00: CV 1 changed from closed to open
     3:48:00: Pump HSP#3 changed from closed to open
   
     3:54:00: Pump HSP#3 changed by rule 7
     3:54:00: Balanced after 5 trials
     3:54:00: Reservoir Aquifer is closed
     3:54:00: Reservoir SurfaceResrvr is closed
     3:54:00: Tank Tank is emptying at 110.32 ft
     3:54:00: CV 1 changed from open to closed
     3:54:00: Pump HSP#3 changed from open to closed
   
  WARNING: Pump WellPump#1 closed because cannot deliver head at 3:54:00 hrs.
  WARNING: Pump WellPump#2 closed because cannot deliver head at 3:54:00 hrs.
  WARNING: Pump WellPump#3 closed because cannot deliver head at 3:54:00 hrs.
  WARNING: Pump WellPump#4 closed because cannot deliver head at 3:54:00 hrs.
  WARNING: Pump ResvrPump closed because cannot deliver head at 3:54:00 hrs.
   
     4:00:00: Balanced after 3 trials
   
  WARNING: Pump WellPump#1 closed because cannot deliver head at 4:00:00 hrs.
  WARNING: Pump WellPump#2 closed because cannot deliver head at 4:00:00 hrs.
  WARNING: Pump WellPump#3 closed because cannot deliver head at 4:00:00 hrs.
  WARNING: Pump WellPump#4 closed because cannot deliver head at 4:00:00 hrs.
  WARNING: Pump ResvrPump closed because cannot deliver head at 4:00:00 hrs.
   
     4:06:00: Pump HSP#3 changed by rule 6
     4:06:00: Balanced after 10 trials
     4:06:00: Reservoir Aquifer is emptying
     4:06:00: Reservoir SurfaceResrvr is emptying
     4:06:00: Tank Tank is filling at 109.95 ft
     4:06:00: CV 1 changed from closed to open
     4:06:00: Pump HSP#3 changed from closed to open
   
     4:12:00: Pump HSP#3 changed by rule 7
     4:12:00: Balanced after 5 trials
     4:12:00: Reservoir Aquifer is closed
     4:12:00: Reservoir SurfaceResrvr is closed
     4:12:00: Tank Tank is emptying at 110.27 ft
     4:12:00: CV 1 changed from open to closed
     4:12:00: Pump HSP#3 changed from open to closed
   
  WARNING: Pump WellPump#1 closed because cannot deliver head at 4:12:00 hrs.
  WARNING: Pump WellPump#2 closed because cannot deliver head at 4:12:00 hrs.
  WARNING: Pump WellPump#3 closed because cannot deliver head at 4:12:00 hrs.
  WARNING: Pump WellPump#4 closed because cannot deliver head at 4:12:00 hrs.
  WARNING: Pump ResvrPump closed because cannot deliver head at 4:12:00 hrs.
   
     4:24:00: Pump HSP#3 changed by rule 6
     4:24:00: Balanced after 10 trials
     4:24:00: Reservoir Aquifer is emptying
     4:24:00: Reservoir SurfaceResrvr is emptying
     4:24:00: Tank Tank is filling at 109.87 ft
     4:24:00: CV 1 changed from closed to open
     4:24:00: Pump HSP#3 changed from closed to open
   
     4:30:00: Pump HSP#3 changed by rule 7
     4:30:00: Balanced after 5 trials
     4:30:00: Reservoir Aquifer is closed
     4:30:00: Reservoir SurfaceResrvr is closed
     4:30:00: Tank Tank is emptying at 110.19 ft
     4:30:00: CV 1 changed from open to closed
     4:30:00: Pump HSP#3 changed from open to closed
   
  WARNING: Pump WellPump#1 closed because cannot deliver head at 4:30:00 hrs.
  WARNING: Pump WellPump#2 closed because cannot deliver head at 4:30:00 hrs.
  WARNING: Pump WellPump#3 closed because cannot deliver head at 4:30:00 hrs.
  WARNING: Pump WellPump#4 closed because cannot deliver head at 4:30:00 hrs.
  WARNING: Pump ResvrPump closed because cannot deliver head at 4:30:00 hrs.
   
     4:36:00: Pump HSP#3 changed by rule 6
     4:36:00: Balanced after 10 trials
     4:36:00: Reservoir Aquifer is emptying
     4:36:00: Reservoir SurfaceResrvr is emptying
     4:36:00: Tank Tank is filling at 109.99 ft
     4:36:00: CV 1 changed from closed to open
     4:36:00: Pump HSP#3 changed from closed to open
   
     4:42:00: Pump HSP#3 changed by rule 7
     4:42:00: Balanced after 5 trials
     4:42:00: Reservoir Aquifer is closed
     4:42:00: Reservoir SurfaceResrvr is closed
     4:42:00: Tank Tank is emptying at 110.31 ft
     4:42:00: CV 1 changed from open to closed
     4:42:00: Pump HSP#3 changed from open to closed
   
  WARNING: Pump WellPump#1 closed because cannot deliver head at 4:42:00 hrs.
  WARNING: Pump WellPump#2 closed because cannot deliver head at 4:42:00 hrs.
  WARNING: Pump WellPump#3 closed because cannot deliver head at 4:42:00 hrs.
  WARNING: Pump WellPump#4 closed because cannot deliver head at 4:42:00 hrs.
  WARNING: Pump ResvrPump closed because cannot deliver head at 4:42:00 hrs.
   
     4:54:00: Pump HSP#3 changed by rule 6
     4:54:00: Balanced after 10 trials
     4:54:00: Reservoir Aquifer is emptying
     4:54:00: Reservoir SurfaceResrvr is emptying
     4:54:00: Tank Tank is filling at 109.90 ft
     4:54:00: CV 1 changed from closed to open
     4:54:00: Pump HSP#3 changed from closed to open
   
     5:00:00: Pump HSP#3 changed by rule 7
     5:00:00: Balanced after 5 trials
     5:00:00: Reservoir Aquifer is closed
     5:00:00: Reservoir SurfaceResrvr is closed
     5:00:00: Tank Tank is emptying at 110.22 ft
     5:00:00: CV 1 changed from open to closed
     5:00:00: Pump HSP#3 changed from open to closed
   
  WARNING: Pump WellPump#1 closed because cannot deliver head at 5:00:00 hrs.
  WARNING: Pump WellPump#2 closed because cannot deliver head at 5:00:00 hrs.
  WARNING: Pump WellPump#3 closed because cannot deliver head at 5:00:00 hrs.
  WARNING: Pump WellPump#4 closed because cannot deliver head at 5:00:00 hrs.
  WARNING: Pump ResvrPump closed because cannot deliver head at 5:00:00 hrs.
   
     5:06:00: Pump HSP#3 changed by rule 6
     5:06:00: Balanced after 10 trials
     5:06:00: Reservoir Aquifer is emptying
     5:06:00: Reservoir SurfaceResrvr is emptying
     5:06:00: Tank Tank is filling at 110.00 ft
     5:06:00: CV 1 changed from closed to open
     5:06:00: Pump HSP#3 changed from closed to open
   
     5:12:00: Pump HSP#3 changed by rule 7
     5:12:00: Balanced after 5 trials
     5:12:00: Reservoir Aquifer is closed
     5:12:00: Reservoir SurfaceResrvr is closed
     5:12:00: Tank Tank is emptying at 110.30 ft
     5:12:00: CV 1 changed from open to closed
     5:12:00: Pump HSP#3 changed from open to closed
   
  WARNING: Pump WellPump#1 closed because cannot deliver head at 5:12:00 hrs.
  WARNING: Pump WellPump#2 closed because cannot deliver head at 5:12:00 hrs.
  WARNING: Pump WellPump#3 closed because cannot deliver head at 5:12:00 hrs.
  WARNING: Pump WellPump#4 closed because cannot deliver head at 5:12:00 hrs.
   
     5:24:00: Pump HSP#3 changed by rule 6
     5:24:00: Balanced after 10 trials
     5:24:00: Reservoir Aquifer is emptying
     5:24:00: Reservoir SurfaceResrvr is emptying
     5:24:00: Tank Tank is filling at 109.85 ft
     5:24:00: CV 1 changed from closed to open
     5:24:00: Pump HSP#3 changed from closed to open
   
     5:30:00: Pump HSP#3 changed by rule 7
     5:30:00: Balanced after 5 trials
     5:30:00: Reservoir Aquifer is closed
     5:30:00: Reservoir SurfaceResrvr is closed
     5:30:00: Tank Tank is emptying at 110.15 ft
     5:30:00: CV 1 changed from open to closed
     5:30:00: Pump HSP#3 changed from open to closed
   
  WARNING: Pump WellPump#1 closed because cannot deliver head at 5:30:00 hrs.
  WARNING: Pump WellPump#2 closed because cannot deliver head at 5:30:00 hrs.
  WARNING: Pump WellPump#3 closed because cannot deliver head at 5:30:00 hrs.
  WARNING: Pump WellPump#4 closed because cannot deliver head at 5:30:00 hrs.
   
     5:36:00: Pump HSP#3 changed by rule 6
     5:36:00: Balanced after 10 trials
     5:36:00: Reservoir Aquifer is emptying
     5:36:00: Reservoir SurfaceResrvr is emptying
     5:36:00: Tank Tank is filling at 109.93 ft
     5:36:00: CV 1 changed from closed to open
     5:36:00: Pump HSP#3 changed from closed to open
   
     5:42:00: Pump HSP#3 changed by rule 7
     5:42:00: Balanced after 5 trials
     5:42:00: Reservoir Aquifer is closed
     5:42:00: Reservoir SurfaceResrvr is closed
     5:42:00: Tank Tank is emptying at 110.23 ft
     5:42:00: CV 1 changed from open to closed
     5:42:00: Pump HSP#3 changed from open to closed
   
  WARNING: Pump WellPump#1 closed because cannot deliver head at 5:42:00 hrs.
  WARNING: Pump WellPump#2 closed because cannot deliver head at 5:42:00 hrs.
  WARNING: Pump WellPump#3 closed because cannot deliver head at 5:42:00 hrs.
  WARNING: Pump WellPump#4 closed because cannot deliver head at 5:42:00 hrs.
  WARNING: Pump ResvrPump closed because cannot deliver head at 5:42:00 hrs.
   
     5:48:00: Pump HSP#3 changed by rule 6
     5:48:00: Balanced after 10 trials
     5:48:00: Reservoir Aquifer is emptying
     5:48:00: Reservoir SurfaceResrvr is emptying
     5:48:00: Tank Tank is filling at 110.00 ft
     5:48:00: CV 1 changed from closed to open
     5:48:00: Pump HSP#3 changed from closed to open
   
     5:54:00: Pump HSP#3 changed by rule 7
     5:54:00: Balanced after 5 trials
     5:54:00: Reservoir Aquifer is closed
     5:54:00: Reservoir SurfaceResrvr is closed
     5:54:00: Tank Tank is emptying at 110.30 ft
     5:54:00: CV 1 changed from open to closed
     5:54:00: Pump HSP#3 changed from open to closed
   
  WARNING: Pump WellPump#1 closed because cannot deliver head at 5:54:00 hrs.
  WARNING: Pump WellPump#2 closed because cannot deliver head at 5:54:00 hrs.
  WARNING: Pump WellPump#3 closed because cannot deliver head at 5:54:00 hrs.
  WARNING: Pump WellPump#4 closed because cannot deliver head at 5:54:00 hrs.
   
     6:00:00: Pump HSP#1 changed by rule 3
     6:00:00: Balanced after 10 trials
     6:00:00: Reservoir Aquifer is emptying
     6:00:00: Reservoir SurfaceResrvr is emptying
     6:00:00: Tank Tank is filling at 110.08 ft
     6:00:00: CV 1 changed from closed to open
     6:00:00: Pump HSP#1 changed from closed to open
   
     6:24:00: Pump HSP#1 changed by rule 4
     6:24:00: Balanced after 5 trials
     6:24:00: Reservoir Aquifer is closed
     6:24:00: Reservoir SurfaceResrvr is closed
     6:24:00: Tank Tank is emptying at 111.24 ft
     6:24:00: CV 1 changed from open to closed
     6:24:00: Pump HSP#1 changed from open to closed
   
  WARNING: Pump WellPump#1 closed because cannot deliver head at 6:24:00 hrs.
  WARNING: Pump WellPump#2 closed because cannot deliver head at 6:24:00 hrs.
  WARNING: Pump WellPump#3 closed because cannot deliver head at 6:24:00 hrs.
  WARNING: Pump WellPump#4 closed because cannot deliver head at 6:24:00 hrs.
  WARNING: Pump ResvrPump closed because cannot deliver head at 6:24:00 hrs.
   
     6:36:00: Pump HSP#1 changed by rule 3
     6:36:00: Balanced after 10 trials
     6:36:00: Reservoir Aquifer is emptying
     6:36:00: Reservoir SurfaceResrvr is emptying
     6:36:00: Tank Tank is filling at 110.77 ft
     6:36:00: CV 1 changed from closed to open
     6:36:00: Pump HSP#1 changed from closed to open
   
     6:42:00: Pump HSP#1 changed by rule 4
     6:42:00: Balanced after 5 trials
     6:42:00: Reservoir Aquifer is closed
     6:42:00: Reservoir SurfaceResrvr is closed
     6:42:00: Tank Tank is emptying at 111.06 ft
     6:42:00: CV 1 changed from open to closed
     6:42:00: Pump HSP#1 changed from open to closed
   
  WARNING: Pump WellPump#1 closed because cannot deliver head at 6:42:00 hrs.
  WARNING: Pump WellPump#2 closed because cannot deliver head at 6:42:00 hrs.
  WARNING: Pump WellPump#3 closed because cannot deliver head at 6:42:00 hrs.
  WARNING: Pump WellPump#4 closed because cannot deliver head at 6:42:00 hrs.
  WARNING: Pump ResvrPump closed because cannot deliver head at 6:42:00 hrs.
   
     6:48:00: Pump HSP#1 changed by rule 3
     6:48:00: Balanced after 10 trials
     6:48:00: Reservoir Aquifer is emptying
     6:48:00: Reservoir SurfaceResrvr is emptying
     6:48:00: Tank Tank is filling at 110.82 ft
     6:48:00: CV 1 changed from closed to open
     6:48:00: Pump HSP#1 changed from closed to open
   
     6:54:00: Pump HSP#1 changed by rule 4
     6:54:00: Balanced after 5 trials
     6:54:00: Reservoir Aquifer is closed
     6:54:00: Reservoir SurfaceResrvr is closed
     6:54:00: Tank Tank is emptying at 111.11 ft
     6:54:00: CV 1 changed from open to closed
     6:54:00: Pump HSP#1 changed from open to closed
   
  WARNING: Pump WellPump#1 closed because cannot deliver head at 6:54:00 hrs.
  WARNING: Pump WellPump#2 closed because cannot deliver head at 6:54:00 hrs.
  WARNING: Pump WellPump#3 closed because cannot deliver head at 6:54:00 hrs.
  WARNING: Pump WellPump#4 closed because cannot deliver head at 6:54:00 hrs.
   
     7:00:00: Pump HSP#1 changed by rule 3
     7:00:00: Balanced after 10 trials
     7:00:00: Reservoir Aquifer is emptying
     7:00:00: Reservoir SurfaceResrvr is emptying
     7:00:00: Tank Tank is filling at 110.88 ft
     7:00:00: CV 1 changed from closed to open
     7:00:00: Pump HSP#1 changed from closed to open
   
     7:06:00: Pump HSP#1 changed by rule 4
     7:06:00: Balanced after 5 trials
     7:06:00: Reservoir Aquifer is closed
     7:06:00: Reservoir SurfaceResrvr is closed
     7:06:00: Tank Tank is emptying at 111.18 ft
     7:06:00: CV 1 changed from open to closed
     7:06:00: Pump HSP#1 changed from open to closed
   
  WARNING: Pump WellPump#1 closed because cannot deliver head at 7:06:00 hrs.
  WARNING: Pump WellPump#2 closed because cannot deliver head at 7:06:00 hrs.
  WARNING: Pump WellPump#3 closed because cannot deliver head at 7:06:00 hrs.
  WARNING: Pump WellPump#4 closed because cannot deliver head at 7:06:00 hrs.
  WARNING: Pump ResvrPump closed because cannot deliver head at 7:06:00 hrs.
   
     7:12:00: Pump HSP#1 changed by rule 3
     7:12:00: Balanced after 30 trials
     7:12:00: Reservoir Aquifer is emptying
     7:12:00: Reservoir SurfaceResrvr is emptying
     7:12:00: Tank Tank is filling at 110.96 ft
     7:12:00: CV 1 changed from closed to open
     7:12:00: Pump HSP#1 changed from closed to open
   
     7:18:00: Pump HSP#1 changed by rule 4
     7:18:00: Balanced after 5 trials
     7:18:00: Reservoir Aquifer is closed
     7:18:00: Reservoir SurfaceResrvr is closed
     7:18:00: Tank Tank is emptying at 111.26 ft
     7:18:00: CV 1 changed from open to closed
     7:18:00: Pump HSP#1 changed from open to closed
   
  WARNING: Pump WellPump#1 closed because cannot deliver head at 7:18:00 hrs.
  WARNING: Pump WellPump#2 closed because cannot deliver head at 7:18:00 hrs.
  WARNING: Pump WellPump#3 closed because cannot deliver head at 7:18:00 hrs.
  WARNING: Pump WellPump#4 closed because cannot deliver head at 7:18:00 hrs.
  WARNING: Pump ResvrPump closed because cannot deliver head at 7:18:00 hrs.
   
     7:30:00: Pump HSP#1 changed by rule 3
     7:30:00: Balanced after 30 trials
     7:30:00: Reservoir Aquifer is emptying
     7:30:00: Reservoir SurfaceResrvr is emptying
     7:30:00: Tank Tank is filling at 110.82 ft
     7:30:00: CV 1 changed from closed to open
     7:30:00: Pump HSP#1 changed from closed to open
   
     7:36:00: Pump HSP#1 changed by rule 4
     7:36:00: Balanced after 5 trials
     7:36:00: Reservoir Aquifer is closed
     7:36:00: Reservoir SurfaceResrvr is closed
     7:36:00: Tank Tank is emptying at 111.13 ft
     7:36:00: CV 1 changed from open to closed
     7:36:00: Pump HSP#1 changed from open to closed
   
  WARNING: Pump WellPump#1 closed because cannot deliver head at 7:36:00 hrs.
  WARNING: Pump WellPump#2 closed because cannot deliver head at 7:36:00 hrs.
  WARNING: Pump WellPump#3 closed because cannot deliver head at 7:36:00 hrs.
  WARNING: Pump WellPump#4 closed because cannot deliver head at 7:36:00 hrs.
  WARNING: Pump ResvrPump closed because cannot deliver head at 7:36:00 hrs.
   
     7:42:00: Pump HSP#1 changed by rule 3
     7:42:00: Balanced after 30 trials
     7:42:00: Reservoir Aquifer is emptying
     7:42:00: Reservoir SurfaceResrvr is emptying
     7:42:00: Tank Tank is filling at 110.91 ft
     7:42:00: CV 1 changed from closed to open
     7:42:00: Pump HSP#1 changed from closed to open
   
     7:48:00: Pump HSP#1 changed by rule 4
     7:48:00: Balanced after 5 trials
     7:48:00: Reservoir Aquifer is closed
     7:48:00: Reservoir SurfaceResrvr is closed
     7:48:00: Tank Tank is emptying at 111.21 ft
     7:48:00: CV 1 changed from open to closed
     7:48:00: Pump HSP#1 changed from open to closed
   
  WARNING: Pump WellPump#1 closed because cannot deliver head at 7:48:00 hrs.
  WARNING: Pump WellPump#2 closed because cannot deliver head at 7:48:00 hrs.
  WARNING: Pump WellPump#3 closed because cannot deliver head at 7:48:00 hrs.
  WARNING: Pump WellPump#4 closed because cannot deliver head at 7:48:00 hrs.
  WARNING: Pump ResvrPump closed because cannot deliver head at 7:48:00 hrs.
   
     7:54:00: Pump HSP#1 changed by rule 3
     7:54:00: Balanced after 30 trials
     7:54:00: Reservoir Aquifer is emptying
     7:54:00: Reservoir SurfaceResrvr is emptying
     7:54:00: Tank Tank is filling at 110.99 ft
     7:54:00: CV 1 changed from closed to open
     7:54:00: Pump HSP#1 changed from closed to open
   
     8:00:00: Pump HSP#1 changed by rule 7
     8:00:00: Balanced after 5 trials
     8:00:00: Reservoir Aquifer is closed
     8:00:00: Reservoir SurfaceResrvr is closed
     8:00:00: Tank Tank is emptying at 111.29 ft
     8:00:00: CV 1 changed from open to closed
     8:00:00: Pump HSP#1 changed from open to closed
   
  WARNING: Pump WellPump#1 closed because cannot deliver head at 8:00:00 hrs.
  WARNING: Pump WellPump#2 closed because cannot deliver head at 8:00:00 hrs.
  WARNING: Pump WellPump#3 closed because cannot deliver head at 8:00:00 hrs.
  WARNING: Pump WellPump#4 closed because cannot deliver head at 8:00:00 hrs.
  WARNING: Pump ResvrPump closed because cannot deliver head at 8:00:00 hrs.
   
     8:36:00: Pump HSP#3 changed by rule 6
     8:36:00: Balanced after 31 trials
     8:36:00: Reservoir Aquifer is emptying
     8:36:00: Reservoir SurfaceResrvr is emptying
     8:36:00: Tank Tank is filling at 109.85 ft
     8:36:00: CV 1 changed from closed to open
     8:36:00: Pump HSP#3 changed from closed to open
   
     8:42:00: Pump HSP#3 changed by rule 7
     8:42:00: Balanced after 6 trials
     8:42:00: Reservoir Aquifer is closed
     8:42:00: Reservoir SurfaceResrvr is closed
     8:42:00: Tank Tank is emptying at 110.13 ft
     8:42:00: CV 1 changed from open to closed
     8:42:00: Pump HSP#3 changed from open to closed
   
  WARNING: Pump WellPump#1 closed because cannot deliver head at 8:42:00 hrs.
  WARNING: Pump WellPump#2 closed because cannot deliver head at 8:42:00 hrs.
  WARNING: Pump WellPump#3 closed because cannot deliver head at 8:42:00 hrs.
  WARNING: Pump WellPump#4 closed because cannot deliver head at 8:42:00 hrs.
  WARNING: Pump ResvrPump closed because cannot deliver head at 8:42:00 hrs.
   
     8:48:00: Pump HSP#3 changed by rule 6
     8:48:00: Balanced after 31 trials
     8:48:00: Reservoir Aquifer is emptying
     8:48:00: Reservoir SurfaceResrvr is emptying
     8:48:00: Tank Tank is filling at 109.89 ft
     8:48:00: CV 1 changed from closed to open
     8:48:00: Pump HSP#3 changed from closed to open
   
     8:54:00: Pump HSP#3 changed by rule 7
     8:54:00: Balanced after 6 trials
     8:54:00: Reservoir Aquifer is closed
     8:54:00: Reservoir SurfaceResrvr is closed
     8:54:00: Tank Tank is emptying at 110.18 ft
     8:54:00: CV 1 changed from open to closed
     8:54:00: Pump HSP#3 changed from open to closed
   
  WARNING: Pump WellPump#1 closed because cannot deliver head at 8:54:00 hrs.
  WARNING: Pump WellPump#2 closed because cannot deliver head at 8:54:00 hrs.
  WARNING: Pump WellPump#3 closed because cannot deliver head at 8:54:00 hrs.
  WARNING: Pump WellPump#4 closed because cannot deliver head at 8:54:00 hrs.
  WARNING: Pump ResvrPump closed because cannot deliver head at 8:54:00 hrs.
   
     9:00:00: Pump HSP#3 changed by rule 6
     9:00:00: Balanced after 30 trials
     9:00:00: Reservoir Aquifer is emptying
     9:00:00: Reservoir SurfaceResrvr is emptying
     9:00:00: Tank Tank is filling at 109.94 ft
     9:00:00: CV 1 changed from closed to open
     9:00:00: Pump HSP#3 changed from closed to open
   
     9:06:00: Pump HSP#3 changed by rule 7
     9:06:00: Balanced after 5 trials
     9:06:00: Reservoir Aquifer is closed
     9:06:00: Reservoir SurfaceResrvr is closed
     9:06:00: Tank Tank is emptying at 110.20 ft
     9:06:00: CV 1 changed from open to closed
     9:06:00: Pump HSP#3 changed from open to closed
   
  WARNING: Pump WellPump#1 closed because cannot deliver head at 9:06:00 hrs.
  WARNING: Pump WellPump#2 closed because cannot deliver head at 9:06:00 hrs.
  WARNING: Pump WellPump#3 closed because cannot deliver head at 9:06:00 hrs.
  WARNING: Pump WellPump#4 closed because cannot deliver head at 9:06:00 hrs.
  WARNING: Pump ResvrPump closed because cannot deliver head at 9:06:00 hrs.
   
     9:12:00: Pump HSP#3 changed by rule 6
     9:12:00: Balanced after 15 trials
     9:12:00: Reservoir Aquifer is emptying
     9:12:00: Reservoir SurfaceResrvr is emptying
     9:12:00: Tank Tank is filling at 109.95 ft
     9:12:00: CV 1 changed from closed to open
     9:12:00: Pump HSP#3 changed from closed to open
   
     9:18:00: Pump HSP#3 changed by rule 7
     9:18:00: Balanced after 5 trials
     9:18:00: Reservoir Aquifer is closed
     9:18:00: Reservoir SurfaceResrvr is closed
     9:18:00: Tank Tank is emptying at 110.21 ft
     9:18:00: CV 1 changed from open to closed
     9:18:00: Pump HSP#3 changed from open to closed
   
  WARNING: Pump WellPump#1 closed because cannot deliver head at 9:18:00 hrs.
  WARNING: Pump WellPump#2 closed because cannot deliver head at 9:18:00 hrs.
  WARNING: Pump WellPump#3 closed because cannot deliver head at 9:18:00 hrs.
  WARNING: Pump WellPump#4 closed because cannot deliver head at 9:18:00 hrs.
  WARNING: Pump ResvrPump closed because cannot deliver head at 9:18:00 hrs.
   
     9:24:00: Pump HSP#3 changed by rule 6
     9:24:00: Balanced after 15 trials
     9:24:00: Reservoir Aquifer is emptying
     9:24:00: Reservoir SurfaceResrvr is emptying
     9:24:00: Tank Tank is filling at 109.96 ft
     9:24:00: CV 1 changed from closed to open
     9:24:00: Pump HSP#3 changed from closed to open
   
     9:30:00: Pump HSP#3 changed by rule 7
     9:30:00: Balanced after 5 trials
     9:30:00: Reservoir Aquifer is closed
     9:30:00: Reservoir SurfaceResrvr is closed
     9:30:00: Tank Tank is emptying at 110.22 ft
     9:30:00: CV 1 changed from open to closed
     9:30:00: Pump HSP#3 changed from open to closed
   
  WARNING: Pump WellPump#1 closed because cannot deliver head at 9:30:00 hrs.
  WARNING: Pump WellPump#2 closed because cannot deliver head at 9:30:00 hrs.
  WARNING: Pump WellPump#3 closed because cannot deliver head at 9:30:00 hrs.
  WARNING: Pump WellPump#4 closed because cannot deliver head at 9:30:00 hrs.
  WARNING: Pump ResvrPump closed because cannot deliver head at 9:30:00 hrs.
   
     9:36:00: Pump HSP#3 changed by rule 6
     9:36:00: Balanced after 15 trials
     9:36:00: Reservoir Aquifer is emptying
     9:36:00: Reservoir SurfaceResrvr is emptying
     9:36:00: Tank Tank is filling at 109.96 ft
     9:36:00: CV 1 changed from closed to open
     9:36:00: Pump HSP#3 changed from closed to open
   
     9:42:00: Pump HSP#3 changed by rule 7
     9:42:00: Balanced after 5 trials
     9:42:00: Reservoir Aquifer is closed
     9:42:00: Reservoir SurfaceResrvr is closed
     9:42:00: Tank Tank is emptying at 110.23 ft
     9:42:00: CV 1 changed from open to closed
     9:42:00: Pump HSP#3 changed from open to closed
   
  WARNING: Pump WellPump#1 closed because cannot deliver head at 9:42:00 hrs.
  WARNING: Pump WellPump#2 closed because cannot deliver head at 9:42:00 hrs.
  WARNING: Pump WellPump#3 closed because cannot deliver head at 9:42:00 hrs.
  WARNING: Pump WellPump#4 closed because cannot deliver head at 9:42:00 hrs.
  WARNING: Pump ResvrPump closed because cannot deliver head at 9:42:00 hrs.
   
     9:48:00: Pump HSP#3 changed by rule 6
     9:48:00: Balanced after 15 trials
     9:48:00: Reservoir Aquifer is emptying
     9:48:00: Reservoir SurfaceResrvr is emptying
     9:48:00: Tank Tank is filling at 109.97 ft
     9:48:00: CV 1 changed from closed to open
     9:48:00: Pump HSP#3 changed from closed to open
   
     9:54:00: Pump HSP#3 changed by rule 7
     9:54:00: Balanced after 5 trials
     9:54:00: Reservoir Aquifer is closed
     9:54:00: Reservoir SurfaceResrvr is closed
     9:54:00: Tank Tank is emptying at 110.24 ft
     9:54:00: CV 1 changed from open to closed
     9:54:00: Pump HSP#3 changed from open to closed
   
  WARNING: Pump WellPump#1 closed because cannot deliver head at 9:54:00 hrs.
  WARNING: Pump WellPump#2 closed because cannot deliver head at 9:54:00 hrs.
  WARNING: Pump WellPump#3 closed because cannot deliver head at 9:54:00 hrs.
  WARNING: Pump WellPump#4 closed because cannot deliver head at 9:54:00 hrs.
   
    10:00:00: Pump HSP#3 changed by rule 6
    10:00:00: Balanced after 14 trials
    10:00:00: Reservoir Aquifer is emptying
    10:00:00: Reservoir SurfaceResrvr is emptying
    10:00:00: Tank Tank is filling at 109.98 ft
    10:00:00: CV 1 changed from closed to open
    10:00:00: Pump HSP#3 changed from closed to open
   
    10:06:00: Pump HSP#3 changed by rule 7
    10:06:00: Balanced after 5 trials
    10:06:00: Reservoir Aquifer is closed
    10:06:00: Reservoir SurfaceResrvr is closed
    10:06:00: Tank Tank is emptying at 110.24 ft
    10:06:00: CV 1 changed from open to closed
    10:06:00: Pump HSP#3 changed from open to closed
   
  WARNING: Pump WellPump#1 closed because cannot deliver head at 10:06:00 hrs.
  WARNING: Pump WellPump#2 closed because cannot deliver head at 10:06:00 hrs.
  WARNING: Pump WellPump#3 closed because cannot deliver head at 10:06:00 hrs.
  WARNING: Pump WellPump#4 closed because cannot deliver head at 10:06:00 hrs.
  WARNING: Pump ResvrPump closed because cannot deliver head at 10:06:00 hrs.
   
    10:12:00: Pump HSP#3 changed by rule 6
    10:12:00: Balanced after 10 trials
    10:12:00: Reservoir Aquifer is emptying
    10:12:00: Reservoir SurfaceResrvr is emptying
    10:12:00: Tank Tank is filling at 109.98 ft
    10:12:00: CV 1 changed from closed to open
    10:12:00: Pump HSP#3 changed from closed to open
   
    10:18:00: Pump HSP#3 changed by rule 7
    10:18:00: Balanced after 5 trials
    10:18:00: Reservoir Aquifer is closed
    10:18:00: Reservoir SurfaceResrvr is closed
    10:18:00: Tank Tank is emptying at 110.23 ft
    10:18:00: CV 1 changed from open to closed
    10:18:00: Pump HSP#3 changed from open to closed
   
  WARNING: Pump WellPump#1 closed because cannot deliver head at 10:18:00 hrs.
  WARNING: Pump WellPump#2 closed because cannot deliver head at 10:18:00 hrs.
  WARNING: Pump WellPump#3 closed because cannot deliver head at 10:18:00 hrs.
  WARNING: Pump WellPump#4 closed because cannot deliver head at 10:18:00 hrs.
   
    10:24:00: Pump HSP#3 changed by rule 6
    10:24:00: Balanced after 10 trials
    10:24:00: Reservoir Aquifer is emptying
    10:24:00: Reservoir SurfaceResrvr is emptying
    10:24:00: Tank Tank is filling at 109.97 ft
    10:24:00: CV 1 changed from closed to open
    10:24:00: Pump HSP#3 changed from closed to open
   
    10:30:00: Pump HSP#3 changed by rule 7
    10:30:00: Balanced after 5 trials
    10:30:00: Reservoir Aquifer is closed
    10:30:00: Reservoir SurfaceResrvr is closed
    10:30:00: Tank Tank is emptying at 110.23 ft
    10:30:00: CV 1 changed from open to closed
    10:30:00: Pump HSP#3 changed from open to closed
   
  WARNING: Pump WellPump#1 closed because cannot deliver head at 10:30:00 hrs.
  WARNING: Pump WellPump#2 closed because cannot deliver head at 10:30:00 hrs.
  WARNING: Pump WellPump#3 closed because cannot deliver head at 10:30:00 hrs.
  WARNING: Pump WellPump#4 closed because cannot deliver head at 10:30:00 hrs.
  WARNING: Pump ResvrPump closed because cannot deliver head at 10:30:00 hrs.
   
    10:36:00: Pump HSP#3 changed by rule 6
    10:36:00: Balanced after 10 trials
    10:36:00: Reservoir Aquifer is emptying
    10:36:00: Reservoir SurfaceResrvr is emptying
    10:36:00: Tank Tank is filling at 109.96 ft
    10:36:00: CV 1 changed from closed to open
    10:36:00: Pump HSP#3 changed from closed to open
   
    10:42:00: Pump HSP#3 changed by rule 7
    10:42:00: Balanced after 5 trials
    10:42:00: Reservoir Aquifer is closed
    10:42:00: Reservoir SurfaceResrvr is closed
    10:42:00: Tank Tank is emptying at 110.22 ft
    10:42:00: CV 1 changed from open to closed
    10:42:00: Pump HSP#3 changed from open to closed
   
  WARNING: Pump WellPump#1 closed because cannot deliver head at 10:42:00 hrs.
  WARNING: Pump WellPump#2 closed because cannot deliver head at 10:42:00 hrs.
  WARNING: Pump WellPump#3 closed because cannot deliver head at 10:42:00 hrs.
  WARNING: Pump WellPump#4 closed because cannot deliver head at 10:42:00 hrs.
  WARNING: Pump ResvrPump closed because cannot deliver head at 10:42:00 hrs.
   
    10:48:00: Pump HSP#3 changed by rule 6
    10:48:00: Balanced after 10 trials
    10:48:00: Reservoir Aquifer is emptying
    10:48:00: Reservoir SurfaceResrvr is emptying
    10:48:00: Tank Tank is filling at 109.96 ft
    10:48:00: CV 1 changed from closed to open
    10:48:00: Pump HSP#3 changed from closed to open
   
    10:54:00: Pump HSP#3 changed by rule 7
    10:54:00: Balanced after 5 trials
    10:54:00: Reservoir Aquifer is closed
    10:54:00: Reservoir SurfaceResrvr is closed
    10:54:00: Tank Tank is emptying at 110.22 ft
    10:54:00: CV 1 changed from open to closed
    10:54:00: Pump HSP#3 changed from open to closed
   
  WARNING: Pump WellPump#1 closed because cannot deliver head at 10:54:00 hrs.
  WARNING: Pump WellPump#2 closed because cannot deliver head at 10:54:00 hrs.
  WARNING: Pump WellPump#3 closed because cannot deliver head at 10:54:00 hrs.
  WARNING: Pump WellPump#4 closed because cannot deliver head at 10:54:00 hrs.
  WARNING: Pump ResvrPump closed because cannot deliver head at 10:54:00 hrs.
   
    11:00:00: Pump HSP#3 changed by rule 6
    11:00:00: Balanced after 11 trials
    11:00:00: Reservoir Aquifer is emptying
    11:00:00: Reservoir SurfaceResrvr is emptying
    11:00:00: Tank Tank is filling at 109.95 ft
    11:00:00: CV 1 changed from closed to open
    11:00:00: Pump HSP#3 changed from closed to open
   
    11:06:00: Pump HSP#3 changed by rule 7
    11:06:00: Balanced after 5 trials
    11:06:00: Reservoir Aquifer is closed
    11:06:00: Reservoir SurfaceResrvr is closed
    11:06:00: Tank Tank is emptying at 110.21 ft
    11:06:00: CV 1 changed from open to closed
    11:06:00: Pump HSP#3 changed from open to closed
   
  WARNING: Pump WellPump#1 closed because cannot deliver head at 11:06:00 hrs.
  WARNING: Pump WellPump#2 closed because cannot deliver head at 11:06:00 hrs.
  WARNING: Pump WellPump#3 closed because cannot deliver head at 11:06:00 hrs.
  WARNING: Pump WellPump#4 closed because cannot deliver head at 11:06:00 hrs.
  WARNING: Pump ResvrPump closed because cannot deliver head at 11:06:00 hrs.
   
    11:12:00: Pump HSP#3 changed by rule 6
    11:12:00: Balanced after 11 trials
    11:12:00: Reservoir Aquifer is emptying
    11:12:00: Reservoir SurfaceResrvr is emptying
    11:12:00: Tank Tank is filling at 109.94 ft
    11:12:00: CV 1 changed from closed to open
    11:12:00: Pump HSP#3 changed from closed to open
   
    11:18:00: Pump HSP#3 changed by rule 7
    11:18:00: Balanced after 5 trials
    11:18:00: Reservoir Aquifer is closed
    11:18:00: Reservoir SurfaceResrvr is closed
    11:18:00: Tank Tank is emptying at 110.19 ft
    11:18:00: CV 1 changed from open to closed
    11:18:00: Pump HSP#3 changed from open to closed
   
  WARNING: Pump WellPump#1 closed because cannot deliver head at 11:18:00 hrs.
  WARNING: Pump WellPump#2 closed because cannot deliver head at 11:18:00 hrs.
  WARNING: Pump WellPump#3 closed because cannot deliver head at 11:18:00 hrs.
  WARNING: Pump WellPump#4 closed because cannot deliver head at 11:18:00 hrs.
   
    11:24:00: Pump HSP#3 changed by rule 6
    11:24:00: Balanced after 11 trials
    11:24:00: Reservoir Aquifer is emptying
    11:24:00: Reservoir SurfaceResrvr is emptying
    11:24:00: Tank Tank is filling at 109.92 ft
    11:24:00: CV 1 changed from closed to open
    11:24:00: Pump HSP#3 changed from closed to open
   
    11:30:00: Pump HSP#3 changed by rule 7
    11:30:00: Balanced after 5 trials
    11:30:00: Reservoir Aquifer is closed
    11:30:00: Reservoir SurfaceResrvr is closed
    11:30:00: Tank Tank is emptying at 110.17 ft
    11:30:00: CV 1 changed from open to closed
    11:30:00: Pump HSP#3 changed from open to closed
   
  WARNING: Pump WellPump#1 closed because cannot deliver head at 11:30:00 hrs.
  WARNING: Pump WellPump#2 closed because cannot deliver head at 11:30:00 hrs.
  WARNING: Pump WellPump#3 closed because cannot deliver head at 11:30:00 hrs.
  WARNING: Pump WellPump#4 closed because cannot deliver head at 11:30:00 hrs.
  WARNING: Pump ResvrPump closed because cannot deliver head at 11:30:00 hrs.
   
    11:36:00: Pump HSP#3 changed by rule 6
    11:36:00: Balanced after 11 trials
    11:36:00: Reservoir Aquifer is emptying
    11:36:00: Reservoir SurfaceResrvr is emptying
    11:36:00: Tank Tank is filling at 109.90 ft
    11:36:00: CV 1 changed from closed to open
    11:36:00: Pump HSP#3 changed from closed to open
   
    11:42:00: Pump HSP#3 changed by rule 7
    11:42:00: Balanced after 5 trials
    11:42:00: Reservoir Aquifer is closed
    11:42:00: Reservoir SurfaceResrvr is closed
    11:42:00: Tank Tank is emptying at 110.16 ft
    11:42:00: CV 1 changed from open to closed
    11:42:00: Pump HSP#3 changed from open to closed
   
  WARNING: Pump WellPump#1 closed because cannot deliver head at 11:42:00 hrs.
  WARNING: Pump WellPump#2 closed because cannot deliver head at 11:42:00 hrs.
  WARNING: Pump WellPump#3 closed because cannot deliver head at 11:42:00 hrs.
  WARNING: Pump WellPump#4 closed because cannot deliver head at 11:42:00 hrs.
  WARNING: Pump ResvrPump closed because cannot deliver head at 11:42:00 hrs.
   
    11:48:00: Pump HSP#3 changed by rule 6
    11:48:00: Balanced after 11 trials
    11:48:00: Reservoir Aquifer is emptying
    11:48:00: Reservoir SurfaceResrvr is emptying
    11:48:00: Tank Tank is filling at 109.89 ft
    11:48:00: CV 1 changed from closed to open
    11:48:00: Pump HSP#3 changed from closed to open
   
    11:54:00: Pump HSP#3 changed by rule 7
    11:54:00: Balanced after 5 trials
    11:54:00: Reservoir Aquifer is closed
    11:54:00: Reservoir SurfaceResrvr is closed
    11:54:00: Tank Tank is emptying at 110.14 ft
    11:54:00: CV 1 changed from open to closed
    11:54:00: Pump HSP#3 changed from open to closed
   
  WARNING: Pump WellPump#1 closed because cannot deliver head at 11:54:00 hrs.
  WARNING: Pump WellPump#2 closed because cannot deliver head at 11:54:00 hrs.
  WARNING: Pump WellPump#3 closed because cannot deliver head at 11:54:00 hrs.
  WARNING: Pump WellPump#4 closed because cannot deliver head at 11:54:00 hrs.
  WARNING: Pump ResvrPump closed because cannot deliver head at 11:54:00 hrs.
   
    12:00:00: Pump HSP#3 changed by rule 6
    12:00:00: Balanced after 11 trials
    12:00:00: Reservoir Aquifer is emptying
    12:00:00: Reservoir SurfaceResrvr is emptying
    12:00:00: Tank Tank is filling at 109.87 ft
    12:00:00: CV 1 changed from closed to open
    12:00:00: Pump HSP#3 changed from closed to open
   
    12:06:00: Pump HSP#3 changed by rule 7
    12:06:00: Balanced after 5 trials
    12:06:00: Reservoir Aquifer is closed
    12:06:00: Reservoir SurfaceResrvr is closed
    12:06:00: Tank Tank is emptying at 110.12 ft
    12:06:00: CV 1 changed from open to closed
    12:06:00: Pump HSP#3 changed from open to closed
   
  WARNING: Pump WellPump#1 closed because cannot deliver head at 12:06:00 hrs.
  WARNING: Pump WellPump#2 closed because cannot deliver head at 12:06:00 hrs.
  WARNING: Pump WellPump#3 closed because cannot deliver head at 12:06:00 hrs.
  WARNING: Pump WellPump#4 closed because cannot deliver head at 12:06:00 hrs.
  WARNING: Pump ResvrPump closed because cannot deliver head at 12:06:00 hrs.
   
    12:12:00: Pump HSP#3 changed by rule 6
    12:12:00: Balanced after 10 trials
    12:12:00: Reservoir Aquifer is emptying
    12:12:00: Reservoir SurfaceResrvr is emptying
    12:12:00: Tank Tank is filling at 109.84 ft
    12:12:00: CV 1 changed from closed to open
    12:12:00: Pump HSP#3 changed from closed to open
   
    12:18:00: Pump HSP#3 changed by rule 7
    12:18:00: Balanced after 5 trials
    12:18:00: Reservoir Aquifer is closed
    12:18:00: Reservoir SurfaceResrvr is closed
    12:18:00: Tank Tank is emptying at 110.09 ft
    12:18:00: CV 1 changed from open to closed
    12:18:00: Pump HSP#3 changed from open to closed
   
  WARNING: Pump WellPump#1 closed because cannot deliver head at 12:18:00 hrs.
  WARNING: Pump WellPump#2 closed because cannot deliver head at 12:18:00 hrs.
  WARNING: Pump WellPump#3 closed because cannot deliver head at 12:18:00 hrs.
  WARNING: Pump WellPump#4 closed because cannot deliver head at 12:18:00 hrs.
   
    12:24:00: Pump HSP#3 changed by rule 6
    12:24:00: Balanced after 10 trials
    12:24:00: Reservoir Aquifer is emptying
    12:24:00: Reservoir SurfaceResrvr is emptying
    12:24:00: Tank Tank is filling at 109.82 ft
    12:24:00: CV 1 changed from closed to open
    12:24:00: Pump HSP#3 changed from closed to open
   
    12:30:00: Pump HSP#3 changed by rule 7
    12:30:00: Balanced after 5 trials
    12:30:00: Reservoir Aquifer is closed
    12:30:00: Reservoir SurfaceResrvr is closed
    12:30:00: Tank Tank is emptying at 110.07 ft
    12:30:00: CV 1 changed from open to closed
    12:30:00: Pump HSP#3 changed from open to closed
   
  WARNING: Pump WellPump#1 closed because cannot deliver head at 12:30:00 hrs.
  WARNING: Pump WellPump#2 closed because cannot deliver head at 12:30:00 hrs.
  WARNING: Pump WellPump#3 closed because cannot deliver head at 12:30:00 hrs.
  WARNING: Pump WellPump#4 closed because cannot deliver head at 12:30:00 hrs.
   
    12:36:00: Pump HSP#3 changed by rule 6
    12:36:00: Balanced after 10 trials
    12:36:00: Reservoir Aquifer is emptying
    12:36:00: Reservoir SurfaceResrvr is emptying
    12:36:00: Tank Tank is filling at 109.79 ft
    12:36:00: CV 1 changed from closed to open
    12:36:00: Pump HSP#3 changed from closed to open
   
    12:42:00: Pump HSP#3 changed by rule 7
    12:42:00: Balanced after 5 trials
    12:42:00: Reservoir Aquifer is closed
    12:42:00: Reservoir SurfaceResrvr is closed
    12:42:00: Tank Tank is emptying at 110.04 ft
    12:42:00: CV 1 changed from open to closed
    12:42:00: Pump HSP#3 changed from open to closed
   
  WARNING: Pump WellPump#1 closed because cannot deliver head at 12:42:00 hrs.
  WARNING: Pump WellPump#2 closed because cannot deliver head at 12:42:00 hrs.
  WARNING: Pump WellPump#3 closed because cannot deliver head at 12:42:00 hrs.
  WARNING: Pump WellPump#4 closed because cannot deliver head at 12:42:00 hrs.
   
    12:48:00: Pump HSP#3 changed by rule 6
    12:48:00: Balanced after 10 trials
    12:48:00: Reservoir Aquifer is emptying
    12:48:00: Reservoir SurfaceResrvr is emptying
    12:48:00: Tank Tank is filling at 109.76 ft
    12:48:00: CV 1 changed from closed to open
    12:48:00: Pump HSP#3 changed from closed to open
   
    12:54:00: Pump HSP#3 changed by rule 7
    12:54:00: Balanced after 5 trials
    12:54:00: Reservoir Aquifer is closed
    12:54:00: Reservoir SurfaceResrvr is closed
    12:54:00: Tank Tank is emptying at 110.01 ft
    12:54:00: CV 1 changed from open to closed
    12:54:00: Pump HSP#3 changed from open to closed
   
  WARNING: Pump WellPump#1 closed because cannot deliver head at 12:54:00 hrs.
  WARNING: Pump WellPump#2 closed because cannot deliver head at 12:54:00 hrs.
  WARNING: Pump WellPump#3 closed because cannot deliver head at 12:54:00 hrs.
  WARNING: Pump WellPump#4 closed because cannot deliver head at 12:54:00 hrs.
  WARNING: Pump ResvrPump closed because cannot deliver head at 12:54:00 hrs.
   
    13:00:00: Pump HSP#3 changed by rule 6
    13:00:00: Balanced after 10 trials
    13:00:00: Reservoir Aquifer is emptying
    13:00:00: Reservoir SurfaceResrvr is emptying
    13:00:00: Tank Tank is filling at 109.74 ft
    13:00:00: CV 1 changed from closed to open
    13:00:00: Pump HSP#3 changed from closed to open
   
    13:12:00: Pump HSP#3 changed by rule 7
    13:12:00: Balanced after 5 trials
    13:12:00: Reservoir Aquifer is closed
    13:12:00: Reservoir SurfaceResrvr is closed
    13:12:00: Tank Tank is emptying at 110.22 ft
    13:12:00: CV 1 changed from open to closed
    13:12:00: Pump HSP#3 changed from open to closed
   
  WARNING: Pump WellPump#1 closed because cannot deliver head at 13:12:00 hrs.
  WARNING: Pump WellPump#2 closed because cannot deliver head at 13:12:00 hrs.
  WARNING: Pump WellPump#3 closed because cannot deliver head at 13:12:00 hrs.
  WARNING: Pump WellPump#4 closed because cannot deliver head at 13:12:00 hrs.
  WARNING: Pump ResvrPump closed because cannot deliver head at 13:12:00 hrs.
   
    13:18:00: Pump HSP#3 changed by rule 6
    13:18:00: Balanced after 11 trials
    13:18:00: Reservoir Aquifer is emptying
    13:18:00: Reservoir SurfaceResrvr is emptying
    13:18:00: Tank Tank is filling at 109.94 ft
    13:18:00: CV 1 changed from closed to open
    13:18:00: Pump HSP#3 changed from closed to open
   
    13:24:00: Pump HSP#3 changed by rule 7
    13:24:00: Balanced after 5 trials
    13:24:00: Reservoir Aquifer is closed
    13:24:00: Reservoir SurfaceResrvr is closed
    13:24:00: Tank Tank is emptying at 110.19 ft
    13:24:00: CV 1 changed from open to closed
    13:24:00: Pump HSP#3 changed from open to closed
   
  WARNING: Pump WellPump#1 closed because cannot deliver head at 13:24:00 hrs.
  WARNING: Pump WellPump#2 closed because cannot deliver head at 13:24:00 hrs.
  WARNING: Pump WellPump#3 closed because cannot deliver head at 13:24:00 hrs.
  WARNING: Pump WellPump#4 closed because cannot deliver head at 13:24:00 hrs.
  WARNING: Pump ResvrPump closed because cannot deliver head at 13:24:00 hrs.
   
    13:30:00: Pump HSP#3 changed by rule 6
    13:30:00: Balanced after 11 trials
    13:30:00: Reservoir Aquifer is emptying
    13:30:00: Reservoir SurfaceResrvr is emptying
    13:30:00: Tank Tank is filling at 109.90 ft
    13:30:00: CV 1 changed from closed to open
    13:30:00: Pump HSP#3 changed from closed to open
   
    13:36:00: Pump HSP#3 changed by rule 7
    13:36:00: Balanced after 5 trials
    13:36:00: Reservoir Aquifer is closed
    13:36:00: Reservoir SurfaceResrvr is closed
    13:36:00: Tank Tank is emptying at 110.15 ft
    13:36:00: CV 1 changed from open to closed
    13:36:00: Pump HSP#3 changed from open to closed
   
  WARNING: Pump WellPump#1 closed because cannot deliver head at 13:36:00 hrs.
  WARNING: Pump WellPump#2 closed because cannot deliver head at 13:36:00 hrs.
  WARNING: Pump WellPump#3 closed because cannot deliver head at 13:36:00 hrs.
  WARNING: Pump WellPump#4 closed because cannot deliver head at 13:36:00 hrs.
   
    13:42:00: Pump HSP#3 changed by rule 6
    13:42:00: Balanced after 11 trials
    13:42:00: Reservoir Aquifer is emptying
    13:42:00: Reservoir SurfaceResrvr is emptying
    13:42:00: Tank Tank is filling at 109.87 ft
    13:42:00: CV 1 changed from closed to open
    13:42:00: Pump HSP#3 changed from closed to open
   
    13:48:00: Pump HSP#3 changed by rule 7
    13:48:00: Balanced after 5 trials
    13:48:00: Reservoir Aquifer is closed
    13:48:00: Reservoir SurfaceResrvr is closed
    13:48:00: Tank Tank is emptying at 110.11 ft
    13:48:00: CV 1 changed from open to closed
    13:48:00: Pump HSP#3 changed from open to closed
   
  WARNING: Pump WellPump#1 closed because cannot deliver head at 13:48:00 hrs.
  WARNING: Pump WellPump#2 closed because cannot deliver head at 13:48:00 hrs.
  WARNING: Pump WellPump#3 closed because cannot deliver head at 13:48:00 hrs.
  WARNING: Pump WellPump#4 closed because cannot deliver head at 13:48:00 hrs.
  WARNING: Pump ResvrPump closed because cannot deliver head at 13:48:00 hrs.
   
    13:54:00: Pump HSP#3 changed by rule 6
    13:54:00: Balanced after 11 trials
    13:54:00: Reservoir Aquifer is emptying
    13:54:00: Reservoir SurfaceResrvr is emptying
    13:54:00: Tank Tank is filling at 109.83 ft
    13:54:00: CV 1 changed from closed to open
    13:54:00: Pump HSP#3 changed from closed to open
   
    14:00:00: Pump HSP#3 changed by rule 7
    14:00:00: Balanced after 5 trials
    14:00:00: Reservoir Aquifer is closed
    14:00:00: Reservoir SurfaceResrvr is closed
    14:00:00: Tank Tank is emptying at 110.07 ft
    14:00:00: CV 1 changed from open to closed
    14:00:00: Pump HSP#3 changed from open to closed
   
  WARNING: Pump WellPump#1 closed because cannot deliver head at 14:00:00 hrs.
  WARNING: Pump WellPump#2 closed because cannot deliver head at 14:00:00 hrs.
  WARNING: Pump WellPump#3 closed because cannot deliver head at 14:00:00 hrs.
  WARNING: Pump WellPump#4 closed because cannot deliver head at 14:00:00 hrs.
  WARNING: Pump ResvrPump closed because cannot deliver head at 14:00:00 hrs.
   
    14:06:00: Pump HSP#3 changed by rule 6
    14:06:00: Balanced after 14 trials
    14:06:00: Reservoir Aquifer is emptying
    14:06:00: Reservoir SurfaceResrvr is emptying
    14:06:00: Tank Tank is filling at 109.78 ft
    14:06:00: CV 1 changed from closed to open
    14:06:00: Pump HSP#3 changed from closed to open
   
    14:12:00: Pump HSP#3 changed by rule 7
    14:12:00: Balanced after 5 trials
    14:12:00: Reservoir Aquifer is closed
    14:12:00: Reservoir SurfaceResrvr is closed
    14:12:00: Tank Tank is emptying at 110.02 ft
    14:12:00: CV 1 changed from open to closed
    14:12:00: Pump HSP#3 changed from open to closed
   
  WARNING: Pump WellPump#1 closed because cannot deliver head at 14:12:00 hrs.
  WARNING: Pump WellPump#2 closed because cannot deliver head at 14:12:00 hrs.
  WARNING: Pump WellPump#3 closed because cannot deliver head at 14:12:00 hrs.
  WARNING: Pump WellPump#4 closed because cannot deliver head at 14:12:00 hrs.
  WARNING: Pump ResvrPump closed because cannot deliver head at 14:12:00 hrs.
   
    14:18:00: Pump HSP#3 changed by rule 6
    14:18:00: Balanced after 14 trials
    14:18:00: Reservoir Aquifer is emptying
    14:18:00: Reservoir SurfaceResrvr is emptying
    14:18:00: Tank Tank is filling at 109.73 ft
    14:18:00: CV 1 changed from closed to open
    14:18:00: Pump HSP#3 changed from closed to open
   
    14:30:00: Pump HSP#3 changed by rule 7
    14:30:00: Balanced after 5 trials
    14:30:00: Reservoir Aquifer is closed
    14:30:00: Reservoir SurfaceResrvr is closed
    14:30:00: Tank Tank is emptying at 110.20 ft
    14:30:00: CV 1 changed from open to closed
    14:30:00: Pump HSP#3 changed from open to closed
   
  WARNING: Pump WellPump#1 closed because cannot deliver head at 14:30:00 hrs.
  WARNING: Pump WellPump#2 closed because cannot deliver head at 14:30:00 hrs.
  WARNING: Pump WellPump#3 closed because cannot deliver head at 14:30:00 hrs.
  WARNING: Pump WellPump#4 closed because cannot deliver head at 14:30:00 hrs.
  WARNING: Pump ResvrPump closed because cannot deliver head at 14:30:00 hrs.
   
    14:36:00: Pump HSP#3 changed by rule 6
    14:36:00: Balanced after 14 trials
    14:36:00: Reservoir Aquifer is emptying
    14:36:00: Reservoir SurfaceResrvr is emptying
    14:36:00: Tank Tank is filling at 109.91 ft
    14:36:00: CV 1 changed from closed to open
    14:36:00: Pump HSP#3 changed from closed to open
   
    14:42:00: Pump HSP#3 changed by rule 7
    14:42:00: Balanced after 5 trials
    14:42:00: Reservoir Aquifer is closed
    14:42:00: Reservoir SurfaceResrvr is closed
    14:42:00: Tank Tank is emptying at 110.15 ft
    14:42:00: CV 1 changed from open to closed
    14:42:00: Pump HSP#3 changed from open to closed
   
  WARNING: Pump WellPump#1 closed because cannot deliver head at 14:42:00 hrs.
  WARNING: Pump WellPump#2 closed because cannot deliver head at 14:42:00 hrs.
  WARNING: Pump WellPump#3 closed because cannot deliver head at 14:42:00 hrs.
  WARNING: Pump WellPump#4 closed because cannot deliver head at 14:42:00 hrs.
  WARNING: Pump ResvrPump closed because cannot deliver head at 14:42:00 hrs.
   
    14:48:00: Pump HSP#3 changed by rule 6
    14:48:00: Balanced after 14 trials
    14:48:00: Reservoir Aquifer is emptying
    14:48:00: Reservoir SurfaceResrvr is emptying
    14:48:00: Tank Tank is filling at 109.86 ft
    14:48:00: CV 1 changed from closed to open
    14:48:00: Pump HSP#3 changed from closed to open
   
    14:54:00: Pump HSP#3 changed by rule 7
    14:54:00: Balanced after 5 trials
    14:54:00: Reservoir Aquifer is closed
    14:54:00: Reservoir SurfaceResrvr is closed
    14:54:00: Tank Tank is emptying at 110.10 ft
    14:54:00: CV 1 changed from open to closed
    14:54:00: Pump HSP#3 changed from open to closed
   
  WARNING: Pump WellPump#1 closed because cannot deliver head at 14:54:00 hrs.
  WARNING: Pump WellPump#2 closed because cannot deliver head at 14:54:00 hrs.
  WARNING: Pump WellPump#3 closed because cannot deliver head at 14:54:00 hrs.
  WARNING: Pump WellPump#4 closed because cannot deliver head at 14:54:00 hrs.
  WARNING: Pump ResvrPump closed because cannot deliver head at 14:54:00 hrs.
   
    15:00:00: Pump HSP#3 changed by rule 6
    15:00:00: Balanced after 14 trials
    15:00:00: Reservoir Aquifer is emptying
    15:00:00: Reservoir SurfaceResrvr is emptying
    15:00:00: Tank Tank is filling at 109.81 ft
    15:00:00: CV 1 changed from closed to open
    15:00:00: Pump HSP#3 changed from closed to open
   
    15:06:00: Pump HSP#3 changed by rule 7
    15:06:00: Balanced after 5 trials
    15:06:00: Reservoir Aquifer is closed
    15:06:00: Reservoir SurfaceResrvr is closed
    15:06:00: Tank Tank is emptying at 110.04 ft
    15:06:00: CV 1 changed from open to closed
    15:06:00: Pump HSP#3 changed from open to closed
   
  WARNING: Pump WellPump#1 closed because cannot deliver head at 15:06:00 hrs.
  WARNING: Pump WellPump#2 closed because cannot deliver head at 15:06:00 hrs.
  WARNING: Pump WellPump#3 closed because cannot deliver head at 15:06:00 hrs.
  WARNING: Pump WellPump#4 closed because cannot deliver head at 15:06:00 hrs.
  WARNING: Pump ResvrPump closed because cannot deliver head at 15:06:00 hrs.
   
    15:12:00: Pump HSP#3 changed by rule 6
    15:12:00: Balanced after 15 trials
    15:12:00: Reservoir Aquifer is emptying
    15:12:00: Reservoir SurfaceResrvr is emptying
    15:12:00: Tank Tank is filling at 109.75 ft
    15:12:00: CV 1 changed from closed to open
    15:12:00: Pump HSP#3 changed from closed to open
   
    15:24:00: Pump HSP#3 changed by rule 7
    15:24:00: Balanced after 5 trials
    15:24:00: Reservoir Aquifer is closed
    15:24:00: Reservoir SurfaceResrvr is closed
    15:24:00: Tank Tank is emptying at 110.22 ft
    15:24:00: CV 1 changed from open to closed
    15:24:00: Pump HSP#3 changed from open to closed
   
  WARNING: Pump WellPump#1 closed because cannot deliver head at 15:24:00 hrs.
  WARNING: Pump WellPump#2 closed because cannot deliver head at 15:24:00 hrs.
  WARNING: Pump WellPump#3 closed because cannot deliver head at 15:24:00 hrs.
  WARNING: Pump WellPump#4 closed because cannot deliver head at 15:24:00 hrs.
  WARNING: Pump ResvrPump closed because cannot deliver head at 15:24:00 hrs.
   
    15:30:00: Pump HSP#3 changed by rule 6
    15:30:00: Balanced after 15 trials
    15:30:00: Reservoir Aquifer is emptying
    15:30:00: Reservoir SurfaceResrvr is emptying
    15:30:00: Tank Tank is filling at 109.92 ft
    15:30:00: CV 1 changed from closed to open
    15:30:00: Pump HSP#3 changed from closed to open
   
    15:36:00: Pump HSP#3 changed by rule 7
    15:36:00: Balanced after 5 trials
    15:36:00: Reservoir Aquifer is closed
    15:36:00: Reservoir SurfaceResrvr is closed
    15:36:00: Tank Tank is emptying at 110.16 ft
    15:36:00: CV 1 changed from open to closed
    15:36:00: Pump HSP#3 changed from open to closed
   
  WARNING: Pump WellPump#1 closed because cannot deliver head at 15:36:00 hrs.
  WARNING: Pump WellPump#2 closed because cannot deliver head at 15:36:00 hrs.
  WARNING: Pump WellPump#3 closed because cannot deliver head at 15:36:00 hrs.
  WARNING: Pump WellPump#4 closed because cannot deliver head at 15:36:00 hrs.
  WARNING: Pump ResvrPump closed because cannot deliver head at 15:36:00 hrs.
   
    15:42:00: Pump HSP#3 changed by rule 6
    15:42:00: Balanced after 15 trials
    15:42:00: Reservoir Aquifer is emptying
    15:42:00: Reservoir SurfaceResrvr is emptying
    15:42:00: Tank Tank is filling at 109.86 ft
    15:42:00: CV 1 changed from closed to open
    15:42:00: Pump HSP#3 changed from closed to open
   
    15:48:00: Pump HSP#3 changed by rule 7
    15:48:00: Balanced after 5 trials
    15:48:00: Reservoir Aquifer is closed
    15:48:00: Reservoir SurfaceResrvr is closed
    15:48:00: Tank Tank is emptying at 110.10 ft
    15:48:00: CV 1 changed from open to closed
    15:48:00: Pump HSP#3 changed from open to closed
   
  WARNING: Pump WellPump#1 closed because cannot deliver head at 15:48:00 hrs.
  WARNING: Pump WellPump#2 closed because cannot deliver head at 15:48:00 hrs.
  WARNING: Pump WellPump#3 closed because cannot deliver head at 15:48:00 hrs.
  WARNING: Pump WellPump#4 closed because cannot deliver head at 15:48:00 hrs.
  WARNING: Pump ResvrPump closed because cannot deliver head at 15:48:00 hrs.
   
    15:54:00: Pump HSP#3 changed by rule 6
    15:54:00: Balanced after 15 trials
    15:54:00: Reservoir Aquifer is emptying
    15:54:00: Reservoir SurfaceResrvr is emptying
    15:54:00: Tank Tank is filling at 109.81 ft
    15:54:00: CV 1 changed from closed to open
    15:54:00: Pump HSP#3 changed from closed to open
   
    16:00:00: Pump HSP#3 changed by rule 7
    16:00:00: Balanced after 5 trials
    16:00:00: Reservoir Aquifer is closed
    16:00:00: Reservoir SurfaceResrvr is closed
    16:00:00: Tank Tank is emptying at 110.04 ft
    16:00:00: CV 1 changed from open to closed
    16:00:00: Pump HSP#3 changed from open to closed
   
  WARNING: Pump WellPump#1 closed because cannot deliver head at 16:00:00 hrs.
  WARNING: Pump WellPump#2 closed because cannot deliver head at 16:00:00 hrs.
  WARNING: Pump WellPump#3 closed because cannot deliver head at 16:00:00 hrs.
  WARNING: Pump WellPump#4 closed because cannot deliver head at 16:00:00 hrs.
  WARNING: Pump ResvrPump closed because cannot deliver head at 16:00:00 hrs.
   
    16:06:00: Pump HSP#3 changed by rule 6
    16:06:00: Balanced after 36 trials
    16:06:00: Reservoir Aquifer is emptying
    16:06:00: Reservoir SurfaceResrvr is emptying
    16:06:00: Tank Tank is filling at 109.74 ft
    16:06:00: CV 1 changed from closed to open
    16:06:00: Pump HSP#3 changed from closed to open
   
    16:18:00: Pump HSP#3 changed by rule 7
    16:18:00: Balanced after 5 trials
    16:18:00: Reservoir Aquifer is closed
    16:18:00: Reservoir SurfaceResrvr is closed
    16:18:00: Tank Tank is emptying at 110.21 ft
    16:18:00: CV 1 changed from open to closed
    16:18:00: Pump HSP#3 changed from open to closed
   
  WARNING: Pump WellPump#1 closed because cannot deliver head at 16:18:00 hrs.
  WARNING: Pump WellPump#2 closed because cannot deliver head at 16:18:00 hrs.
  WARNING: Pump WellPump#3 closed because cannot deliver head at 16:18:00 hrs.
  WARNING: Pump WellPump#4 closed because cannot deliver head at 16:18:00 hrs.
   
    16:24:00: Pump HSP#3 changed by rule 6
    16:24:00: Balanced after 36 trials
    16:24:00: Reservoir Aquifer is emptying
    16:24:00: Reservoir SurfaceResrvr is emptying
    16:24:00: Tank Tank is filling at 109.91 ft
    16:24:00: CV 1 changed from closed to open
    16:24:00: Pump HSP#3 changed from closed to open
   
    16:30:00: Pump HSP#3 changed by rule 7
    16:30:00: Balanced after 5 trials
    16:30:00: Reservoir Aquifer is closed
    16:30:00: Reservoir SurfaceResrvr is closed
    16:30:00: Tank Tank is emptying at 110.14 ft
    16:30:00: CV 1 changed from open to closed
    16:30:00: Pump HSP#3 changed from open to closed
   
  WARNING: Pump WellPump#1 closed because cannot deliver head at 16:30:00 hrs.
  WARNING: Pump WellPump#2 closed because cannot deliver head at 16:30:00 hrs.
  WARNING: Pump WellPump#3 closed because cannot deliver head at 16:30:00 hrs.
  WARNING: Pump WellPump#4 closed because cannot deliver head at 16:30:00 hrs.
  WARNING: Pump ResvrPump closed because cannot deliver head at 16:30:00 hrs.
   
    16:36:00: Pump HSP#3 changed by rule 6
    16:36:00: Balanced after 36 trials
    16:36:00: Reservoir Aquifer is emptying
    16:36:00: Reservoir SurfaceResrvr is emptying
    16:36:00: Tank Tank is filling at 109.85 ft
    16:36:00: CV 1 changed from closed to open
    16:36:00: Pump HSP#3 changed from closed to open
   
    16:42:00: Pump HSP#3 changed by rule 7
    16:42:00: Balanced after 5 trials
    16:42:00: Reservoir Aquifer is closed
    16:42:00: Reservoir SurfaceResrvr is closed
    16:42:00: Tank Tank is emptying at 110.08 ft
    16:42:00: CV 1 changed from open to closed
    16:42:00: Pump HSP#3 changed from open to closed
   
  WARNING: Pump WellPump#1 closed because cannot deliver head at 16:42:00 hrs.
  WARNING: Pump WellPump#2 closed because cannot deliver head at 16:42:00 hrs.
  WARNING: Pump WellPump#3 closed because cannot deliver head at 16:42:00 hrs.
  WARNING: Pump WellPump#4 closed because cannot deliver head at 16:42:00 hrs.
  WARNING: Pump ResvrPump closed because cannot deliver head at 16:42:00 hrs.
   
    16:48:00: Pump HSP#3 changed by rule 6
    16:48:00: Balanced after 36 trials
    16:48:00: Reservoir Aquifer is emptying
    16:48:00: Reservoir SurfaceResrvr is emptying
    16:48:00: Tank Tank is filling at 109.78 ft
    16:48:00: CV 1 changed from closed to open
    16:48:00: Pump HSP#3 changed from closed to open
   
    16:54:00: Pump HSP#3 changed by rule 7
    16:54:00: Balanced after 5 trials
    16:54:00: Reservoir Aquifer is closed
    16:54:00: Reservoir SurfaceResrvr is closed
    16:54:00: Tank Tank is emptying at 110.01 ft
    16:54:00: CV 1 changed from open to closed
    16:54:00: Pump HSP#3 changed from open to closed
   
  WARNING: Pump WellPump#1 closed because cannot deliver head at 16:54:00 hrs.
  WARNING: Pump WellPump#2 closed because cannot deliver head at 16:54:00 hrs.
  WARNING: Pump WellPump#3 closed because cannot deliver head at 16:54:00 hrs.
  WARNING: Pump WellPump#4 closed because cannot deliver head at 16:54:00 hrs.
   
    17:00:00: Pump HSP#3 changed by rule 6
    17:00:00: Balanced after 36 trials
    17:00:00: Reservoir Aquifer is emptying
    17:00:00: Reservoir SurfaceResrvr is emptying
    17:00:00: Tank Tank is filling at 109.72 ft
    17:00:00: CV 1 changed from closed to open
    17:00:00: Pump HSP#3 changed from closed to open
   
    17:12:00: Pump HSP#3 changed by rule 7
    17:12:00: Balanced after 5 trials
    17:12:00: Reservoir Aquifer is closed
    17:12:00: Reservoir SurfaceResrvr is closed
    17:12:00: Tank Tank is emptying at 110.20 ft
    17:12:00: CV 1 changed from open to closed
    17:12:00: Pump HSP#3 changed from open to closed
   
  WARNING: Pump WellPump#1 closed because cannot deliver head at 17:12:00 hrs.
  WARNING: Pump WellPump#2 closed because cannot deliver head at 17:12:00 hrs.
  WARNING: Pump WellPump#3 closed because cannot deliver head at 17:12:00 hrs.
  WARNING: Pump WellPump#4 closed because cannot deliver head at 17:12:00 hrs.
  WARNING: Pump ResvrPump closed because cannot deliver head at 17:12:00 hrs.
   
    17:18:00: Pump HSP#3 changed by rule 6
    17:18:00: Balanced after 31 trials
    17:18:00: Reservoir Aquifer is emptying
    17:18:00: Reservoir SurfaceResrvr is emptying
    17:18:00: Tank Tank is filling at 109.91 ft
    17:18:00: CV 1 changed from closed to open
    17:18:00: Pump HSP#3 changed from closed to open
   
    17:24:00: Pump HSP#3 changed by rule 7
    17:24:00: Balanced after 5 trials
    17:24:00: Reservoir Aquifer is closed
    17:24:00: Reservoir SurfaceResrvr is closed
    17:24:00: Tank Tank is emptying at 110.15 ft
    17:24:00: CV 1 changed from open to closed
    17:24:00: Pump HSP#3 changed from open to closed
   
  WARNING: Pump WellPump#1 closed because cannot deliver head at 17:24:00 hrs.
  WARNING: Pump WellPump#2 closed because cannot deliver head at 17:24:00 hrs.
  WARNING: Pump WellPump#3 closed because cannot deliver head at 17:24:00 hrs.
  WARNING: Pump WellPump#4 closed because cannot deliver head at 17:24:00 hrs.
  WARNING: Pump ResvrPump closed because cannot deliver head at 17:24:00 hrs.
   
    17:30:00: Pump HSP#3 changed by rule 6
    17:30:00: Balanced after 31 trials
    17:30:00: Reservoir Aquifer is emptying
    17:30:00: Reservoir SurfaceResrvr is emptying
    17:30:00: Tank Tank is filling at 109.86 ft
    17:30:00: CV 1 changed from closed to open
    17:30:00: Pump HSP#3 changed from closed to open
   
    17:36:00: Pump HSP#3 changed by rule 7
    17:36:00: Balanced after 5 trials
    17:36:00: Reservoir Aquifer is closed
    17:36:00: Reservoir SurfaceResrvr is closed
    17:36:00: Tank Tank is emptying at 110.10 ft
    17:36:00: CV 1 changed from open to closed
    17:36:00: Pump HSP#3 changed from open to closed
   
  WARNING: Pump WellPump#1 closed because cannot deliver head at 17:36:00 hrs.
  WARNING: Pump WellPump#2 closed because cannot deliver head at 17:36:00 hrs.
  WARNING: Pump WellPump#3 closed because cannot deliver head at 17:36:00 hrs.
  WARNING: Pump WellPump#4 closed because cannot deliver head at 17:36:00 hrs.
  WARNING: Pump ResvrPump closed because cannot deliver head at 17:36:00 hrs.
   
    17:42:00: Pump HSP#3 changed by rule 6
    17:42:00: Balanced after 31 trials
    17:42:00: Reservoir Aquifer is emptying
    17:42:00: Reservoir SurfaceResrvr is emptying
    17:42:00: Tank Tank is filling at 109.81 ft
    17:42:00: CV 1 changed from closed to open
    17:42:00: Pump HSP#3 changed from closed to open
   
    17:48:00: Pump HSP#3 changed by rule 7
    17:48:00: Balanced after 5 trials
    17:48:00: Reservoir Aquifer is closed
    17:48:00: Reservoir SurfaceResrvr is closed
    17:48:00: Tank Tank is emptying at 110.05 ft
    17:48:00: CV 1 changed from open to closed
    17:48:00: Pump HSP#3 changed from open to closed
   
  WARNING: Pump WellPump#1 closed because cannot deliver head at 17:48:00 hrs.
  WARNING: Pump WellPump#2 closed because cannot deliver head at 17:48:00 hrs.
  WARNING: Pump WellPump#3 closed because cannot deliver head at 17:48:00 hrs.
  WARNING: Pump WellPump#4 closed because cannot deliver head at 17:48:00 hrs.
  WARNING: Pump ResvrPump closed because cannot deliver head at 17:48:00 hrs.
   
    17:54:00: Pump HSP#3 changed by rule 6
    17:54:00: Balanced after 31 trials
    17:54:00: Reservoir Aquifer is emptying
    17:54:00: Reservoir SurfaceResrvr is emptying
    17:54:00: Tank Tank is filling at 109.76 ft
    17:54:00: CV 1 changed from closed to open
    17:54:00: Pump HSP#3 changed from closed to open
   
    18:00:00: Balanced after 3 trials
   
    18:06:00: Pump HSP#3 changed by rule 7
    18:06:00: Balanced after 5 trials
    18:06:00: Reservoir Aquifer is closed
    18:06:00: Reservoir SurfaceResrvr is closed
    18:06:00: Tank Tank is emptying at 110.24 ft
    18:06:00: CV 1 changed from open to closed
    18:06:00: Pump HSP#3 changed from open to closed
   
  WARNING: Pump WellPump#1 closed because cannot deliver head at 18:06:00 hrs.
  WARNING: Pump WellPump#2 closed because cannot deliver head at 18:06:00 hrs.
  WARNING: Pump WellPump#3 closed because cannot deliver head at 18:06:00 hrs.
  WARNING: Pump WellPump#4 closed because cannot deliver head at 18:06:00 hrs.
  WARNING: Pump ResvrPump closed because cannot deliver head at 18:06:00 hrs.
   
    18:12:00: Pump HSP#3 changed by rule 6
    18:12:00: Balanced after 29 trials
    18:12:00: Reservoir Aquifer is emptying
    18:12:00: Reservoir SurfaceResrvr is emptying
    18:12:00: Tank Tank is filling at 109.95 ft
    18:12:00: CV 1 changed from closed to open
    18:12:00: Pump HSP#3 changed from closed to open
   
    18:18:00: Pump HSP#3 changed by rule 7
    18:18:00: Balanced after 5 trials
    18:18:00: Reservoir Aquifer is closed
    18:18:00: Reservoir SurfaceResrvr is closed
    18:18:00: Tank Tank is emptying at 110.18 ft
    18:18:00: CV 1 changed from open to closed
    18:18:00: Pump HSP#3 changed from open to closed
   
  WARNING: Pump WellPump#1 closed because cannot deliver head at 18:18:00 hrs.
  WARNING: Pump WellPump#2 closed because cannot deliver head at 18:18:00 hrs.
  WARNING: Pump WellPump#3 closed because cannot deliver head at 18:18:00 hrs.
  WARNING: Pump WellPump#4 closed because cannot deliver head at 18:18:00 hrs.
  WARNING: Pump ResvrPump closed because cannot deliver head at 18:18:00 hrs.
   
    18:24:00: Pump HSP#3 changed by rule 6
    18:24:00: Balanced after 29 trials
    18:24:00: Reservoir Aquifer is emptying
    18:24:00: Reservoir SurfaceResrvr is emptying
    18:24:00: Tank Tank is filling at 109.89 ft
    18:24:00: CV 1 changed from closed to open
    18:24:00: Pump HSP#3 changed from closed to open
   
    18:30:00: Pump HSP#3 changed by rule 7
    18:30:00: Balanced after 5 trials
    18:30:00: Reservoir Aquifer is closed
    18:30:00: Reservoir SurfaceResrvr is closed
    18:30:00: Tank Tank is emptying at 110.13 ft
    18:30:00: CV 1 changed from open to closed
    18:30:00: Pump HSP#3 changed from open to closed
   
  WARNING: Pump WellPump#1 closed because cannot deliver head at 18:30:00 hrs.
  WARNING: Pump WellPump#2 closed because cannot deliver head at 18:30:00 hrs.
  WARNING: Pump WellPump#3 closed because cannot deliver head at 18:30:00 hrs.
  WARNING: Pump WellPump#4 closed because cannot deliver head at 18:30:00 hrs.
  WARNING: Pump ResvrPump closed because cannot deliver head at 18:30:00 hrs.
   
    18:36:00: Pump HSP#3 changed by rule 6
    18:36:00: Balanced after 29 trials
    18:36:00: Reservoir Aquifer is emptying
    18:36:00: Reservoir SurfaceResrvr is emptying
    18:36:00: Tank Tank is filling at 109.84 ft
    18:36:00: CV 1 changed from closed to open
    18:36:00: Pump HSP#3 changed from closed to open
   
    18:42:00: Pump HSP#3 changed by rule 7
    18:42:00: Balanced after 5 trials
    18:42:00: Reservoir Aquifer is closed
    18:42:00: Reservoir SurfaceResrvr is closed
    18:42:00: Tank Tank is emptying at 110.08 ft
    18:42:00: CV 1 changed from open to closed
    18:42:00: Pump HSP#3 changed from open to closed
   
  WARNING: Pump WellPump#1 closed because cannot deliver head at 18:42:00 hrs.
  WARNING: Pump WellPump#2 closed because cannot deliver head at 18:42:00 hrs.
  WARNING: Pump WellPump#3 closed because cannot deliver head at 18:42:00 hrs.
  WARNING: Pump WellPump#4 closed because cannot deliver head at 18:42:00 hrs.
  WARNING: Pump ResvrPump closed because cannot deliver head at 18:42:00 hrs.
   
    18:48:00: Pump HSP#3 changed by rule 6
    18:48:00: Balanced after 29 trials
    18:48:00: Reservoir Aquifer is emptying
    18:48:00: Reservoir SurfaceResrvr is emptying
    18:48:00: Tank Tank is filling at 109.79 ft
    18:48:00: CV 1 changed from closed to open
    18:48:00: Pump HSP#3 changed from closed to open
   
    18:54:00: Pump HSP#3 changed by rule 7
    18:54:00: Balanced after 5 trials
    18:54:00: Reservoir Aquifer is closed
    18:54:00: Reservoir SurfaceResrvr is closed
    18:54:00: Tank Tank is emptying at 110.03 ft
    18:54:00: CV 1 changed from open to closed
    18:54:00: Pump HSP#3 changed from open to closed
   
  WARNING: Pump WellPump#1 closed because cannot deliver head at 18:54:00 hrs.
  WARNING: Pump WellPump#2 closed because cannot deliver head at 18:54:00 hrs.
  WARNING: Pump WellPump#3 closed because cannot deliver head at 18:54:00 hrs.
  WARNING: Pump WellPump#4 closed because cannot deliver head at 18:54:00 hrs.
  WARNING: Pump ResvrPump closed because cannot deliver head at 18:54:00 hrs.
   
    19:00:00: Pump HSP#3 changed by rule 6
    19:00:00: Balanced after 30 trials
    19:00:00: Reservoir Aquifer is emptying
    19:00:00: Reservoir SurfaceResrvr is emptying
    19:00:00: Tank Tank is filling at 109.74 ft
    19:00:00: CV 1 changed from closed to open
    19:00:00: Pump HSP#3 changed from closed to open
   
    19:12:00: Pump HSP#3 changed by rule 7
    19:12:00: Balanced after 5 trials
    19:12:00: Reservoir Aquifer is closed
    19:12:00: Reservoir SurfaceResrvr is closed
    19:12:00: Tank Tank is emptying at 110.24 ft
    19:12:00: CV 1 changed from open to closed
    19:12:00: Pump HSP#3 changed from open to closed
   
  WARNING: Pump WellPump#1 closed because cannot deliver head at 19:12:00 hrs.
  WARNING: Pump WellPump#2 closed because cannot deliver head at 19:12:00 hrs.
  WARNING: Pump WellPump#3 closed because cannot deliver head at 19:12:00 hrs.
  WARNING: Pump WellPump#4 closed because cannot deliver head at 19:12:00 hrs.
  WARNING: Pump ResvrPump closed because cannot deliver head at 19:12:00 hrs.
   
    19:18:00: Pump HSP#3 changed by rule 6
    19:18:00: Balanced after 17 trials
    19:18:00: Reservoir Aquifer is emptying
    19:18:00: Reservoir SurfaceResrvr is emptying
    19:18:00: Tank Tank is filling at 109.96 ft
    19:18:00: CV 1 changed from closed to open
    19:18:00: Pump HSP#3 changed from closed to open
   
    19:24:00: Pump HSP#3 changed by rule 7
    19:24:00: Balanced after 5 trials
    19:24:00: Reservoir Aquifer is closed
    19:24:00: Reservoir SurfaceResrvr is closed
    19:24:00: Tank Tank is emptying at 110.21 ft
    19:24:00: CV 1 changed from open to closed
    19:24:00: Pump HSP#3 changed from open to closed
   
  WARNING: Pump WellPump#1 closed because cannot deliver head at 19:24:00 hrs.
  WARNING: Pump WellPump#2 closed because cannot deliver head at 19:24:00 hrs.
  WARNING: Pump WellPump#3 closed because cannot deliver head at 19:24:00 hrs.
  WARNING: Pump WellPump#4 closed because cannot deliver head at 19:24:00 hrs.
  WARNING: Pump ResvrPump closed because cannot deliver head at 19:24:00 hrs.
   
    19:30:00: Pump HSP#3 changed by rule 6
    19:30:00: Balanced after 17 trials
    19:30:00: Reservoir Aquifer is emptying
    19:30:00: Reservoir SurfaceResrvr is emptying
    19:30:00: Tank Tank is filling at 109.93 ft
    19:30:00: CV 1 changed from closed to open
    19:30:00: Pump HSP#3 changed from closed to open
   
    19:36:00: Pump HSP#3 changed by rule 7
    19:36:00: Balanced after 5 trials
    19:36:00: Reservoir Aquifer is closed
    19:36:00: Reservoir SurfaceResrvr is closed
    19:36:00: Tank Tank is emptying at 110.18 ft
    19:36:00: CV 1 changed from open to closed
    19:36:00: Pump HSP#3 changed from open to closed
   
  WARNING: Pump WellPump#1 closed because cannot deliver head at 19:36:00 hrs.
  WARNING: Pump WellPump#2 closed because cannot deliver head at 19:36:00 hrs.
  WARNING: Pump WellPump#3 closed because cannot deliver head at 19:36:00 hrs.
  WARNING: Pump WellPump#4 closed because cannot deliver head at 19:36:00 hrs.
  WARNING: Pump ResvrPump closed because cannot deliver head at 19:36:00 hrs.
   
    19:42:00: Pump HSP#3 changed by rule 6
    19:42:00: Balanced after 17 trials
    19:42:00: Reservoir Aquifer is emptying
    19:42:00: Reservoir SurfaceResrvr is emptying
    19:42:00: Tank Tank is filling at 109.90 ft
    19:42:00: CV 1 changed from closed to open
    19:42:00: Pump HSP#3 changed from closed to open
   
    19:48:00: Pump HSP#3 changed by rule 7
    19:48:00: Balanced after 5 trials
    19:48:00: Reservoir Aquifer is closed
    19:48:00: Reservoir SurfaceResrvr is closed
    19:48:00: Tank Tank is emptying at 110.15 ft
    19:48:00: CV 1 changed from open to closed
    19:48:00: Pump HSP#3 changed from open to closed
   
  WARNING: Pump WellPump#1 closed because cannot deliver head at 19:48:00 hrs.
  WARNING: Pump WellPump#2 closed because cannot deliver head at 19:48:00 hrs.
  WARNING: Pump WellPump#3 closed because cannot deliver head at 19:48:00 hrs.
  WARNING: Pump WellPump#4 closed because cannot deliver head at 19:48:00 hrs.
   
    19:54:00: Pump HSP#3 changed by rule 6
    19:54:00: Balanced after 17 trials
    19:54:00: Reservoir Aquifer is emptying
    19:54:00: Reservoir SurfaceResrvr is emptying
    19:54:00: Tank Tank is filling at 109.88 ft
    19:54:00: CV 1 changed from closed to open
    19:54:00: Pump HSP#3 changed from closed to open
   
    20:00:00: Pump HSP#3 changed by rule 7
    20:00:00: Balanced after 5 trials
    20:00:00: Reservoir Aquifer is closed
    20:00:00: Reservoir SurfaceResrvr is closed
    20:00:00: Tank Tank is emptying at 110.13 ft
    20:00:00: CV 1 changed from open to closed
    20:00:00: Pump HSP#3 changed from open to closed
   
  WARNING: Pump WellPump#1 closed because cannot deliver head at 20:00:00 hrs.
  WARNING: Pump WellPump#2 closed because cannot deliver head at 20:00:00 hrs.
  WARNING: Pump WellPump#3 closed because cannot deliver head at 20:00:00 hrs.
  WARNING: Pump WellPump#4 closed because cannot deliver head at 20:00:00 hrs.
  WARNING: Pump ResvrPump closed because cannot deliver head at 20:00:00 hrs.
   
    20:06:00: Pump HSP#3 changed by rule 6
    20:06:00: Balanced after 10 trials
    20:06:00: Reservoir Aquifer is emptying
    20:06:00: Reservoir SurfaceResrvr is emptying
    20:06:00: Tank Tank is filling at 109.90 ft
    20:06:00: CV 1 changed from closed to open
    20:06:00: Pump HSP#3 changed from closed to open
   
    20:12:00: Pump HSP#3 changed by rule 7
    20:12:00: Balanced after 5 trials
    20:12:00: Reservoir Aquifer is closed
    20:12:00: Reservoir SurfaceResrvr is closed
    20:12:00: Tank Tank is emptying at 110.20 ft
    20:12:00: CV 1 changed from open to closed
    20:12:00: Pump HSP#3 changed from open to closed
   
  WARNING: Pump WellPump#1 closed because cannot deliver head at 20:12:00 hrs.
  WARNING: Pump WellPump#2 closed because cannot deliver head at 20:12:00 hrs.
  WARNING: Pump WellPump#3 closed because cannot deliver head at 20:12:00 hrs.
  WARNING: Pump WellPump#4 closed because cannot deliver head at 20:12:00 hrs.
  WARNING: Pump ResvrPump closed because cannot deliver head at 20:12:00 hrs.
   
    20:18:00: Pump HSP#3 changed by rule 6
    20:18:00: Balanced after 10 trials
    20:18:00: Reservoir Aquifer is emptying
    20:18:00: Reservoir SurfaceResrvr is emptying
    20:18:00: Tank Tank is filling at 109.97 ft
    20:18:00: CV 1 changed from closed to open
    20:18:00: Pump HSP#3 changed from closed to open
   
    20:24:00: Pump HSP#3 changed by rule 7
    20:24:00: Balanced after 5 trials
    20:24:00: Reservoir Aquifer is closed
    20:24:00: Reservoir SurfaceResrvr is closed
    20:24:00: Tank Tank is emptying at 110.27 ft
    20:24:00: CV 1 changed from open to closed
    20:24:00: Pump HSP#3 changed from open to closed
   
  WARNING: Pump WellPump#1 closed because cannot deliver head at 20:24:00 hrs.
  WARNING: Pump WellPump#2 closed because cannot deliver head at 20:24:00 hrs.
  WARNING: Pump WellPump#3 closed because cannot deliver head at 20:24:00 hrs.
  WARNING: Pump WellPump#4 closed because cannot deliver head at 20:24:00 hrs.
  WARNING: Pump ResvrPump closed because cannot deliver head at 20:24:00 hrs.
   
    20:36:00: Pump HSP#3 changed by rule 6
    20:36:00: Balanced after 10 trials
    20:36:00: Reservoir Aquifer is emptying
    20:36:00: Reservoir SurfaceResrvr is emptying
[...]
  IN1519               0.00   1151.23     55.56     14.40
  HY46                 0.00   1155.97     51.55      0.00
  HY47                 0.00   1155.97     50.68      0.00
  HY48                 0.00   1155.97     46.35      0.00
  HY49                 0.00   1156.14     51.19      0.00
  HY50                 0.00   1156.14     54.66      0.00
  HY51                 0.00   1277.94    107.87      0.00
  HY52                 0.00   1327.89    128.21      0.00
  HY53                 0.00   1157.83     51.06      0.00
  HY54                 0.00   1152.72     49.27      0.00
  HY55                 0.00   1151.89     55.41      0.00
  HY56                 0.00   1152.16     54.67      0.00
  HY57                 0.00   1152.23     50.80      0.00
  HY58                 0.00   1155.97     43.75      0.00
  HY59                 0.00   1155.86     44.14      0.00
  HY60                 0.00   1155.97     47.22      0.00
  HY61                 0.00   1155.86     50.64      0.00
  HY62                 0.00   1156.62     50.97      0.00
  HY63                 0.00   1190.37     70.36      0.00
  HY64                 0.00   1150.07     48.99      0.00
  HY65                 0.00   1158.89     54.98      0.00
  HY66                 0.00   1151.37     52.59      0.00
  HY67                 0.00   1152.27     46.91      0.00
  IN1520               0.00   1152.60     47.71      2.56
  HY68                 0.00   1152.60     47.71      0.00
  IN1521               0.00   1151.33     56.47      9.83
  HY69                 0.00   1151.33     56.47      0.00
  IN1522               0.00   1074.99     17.33      0.00
  TN1523               0.00   1155.28     44.32     23.00
  TN1525               0.00   1152.98     55.45      5.42
  TN1524               0.00   1215.72     81.77      4.57
  TN1526               0.00   1155.35     53.01     23.00
  TN1527               0.27   1176.14     63.32      1.35
  TN1528               0.07   1214.28     79.85      2.39
  TN1529               0.07   1256.37     97.65      1.69
  IN1530               0.00   1176.14     63.32      0.53
  IN1531               0.00   1214.28     79.85      0.53
  IN1532               0.00   1256.37     98.09      0.53
  TN1533               9.43   1151.17     54.67     14.71
  IN1534               0.00   1151.11     52.47     13.20
  IN1535               0.00   1151.30     52.56      9.63
  IN1536               0.00   1151.30     52.12      5.35
  IN1537               0.00   1151.30     50.39      7.52
  IN1538               0.00   1151.30     49.96      5.83
  IN1539               0.00   1151.30     49.53      7.05
  IN1540               0.00   1151.30     49.96      9.49
  IN1541               0.00   1151.31     50.83      9.19
  IN1542               0.00   1151.31     51.27      9.03
  IN1543               0.00   1151.31     53.00     22.03
  IN1544               0.00   1151.32     55.17     18.34
  IN1545               0.00   1151.34     56.91     18.74
  IN1546               0.00   1151.35     58.65     19.25
  IN1547               0.00   1151.35     59.08     21.31
  IN1548               0.00   1151.35     59.08      5.90
  IN1549               0.00   1151.52     56.99     14.48
  IN1550               0.00   1151.33     57.34      6.99
  IN1551               0.00   1151.41     56.07     11.72
  IN1552               0.00   1151.67     57.05     14.79
  TN1553               0.20   1151.27     52.11      8.66
  TN1554               0.27   1151.26     51.68      7.79
  TN1555               0.07   1151.29     52.55      8.96
  TN1556               0.07   1151.29     51.69      6.84
  TN1557               0.07   1151.29     50.39      6.83
  TN1558               0.07   1151.29     49.95      6.87
  TN1559               0.07   1151.29     50.82      4.82
  TN1560               0.13   1151.28     50.38      6.87
  TN1561               0.07   1151.29     49.52      6.46
  TN1562               0.07   1151.29     49.52      7.01
  TN1563               0.27   1151.27     49.95      5.30
  TN1564               0.07   1151.29     49.52      5.77
  TN1565               0.40   1151.26     49.51      6.50
  TN1566               0.07   1151.29     49.52      6.40
  TN1567               0.13   1151.29     49.95      6.48
  TN1568               0.07   1151.29     49.52      6.44
  TN1569               0.40   1151.25     49.94      9.68
  TN1570               0.13   1151.28     49.95      8.99
  TN1571               0.20   1151.28     49.52      9.57
  TN1572               0.33   1151.26     50.37      9.58
  TN1573               0.13   1151.29     50.39      9.68
  TN1574               0.20   1151.29     50.39      8.98
  TN1575               0.07   1151.30     50.39      8.98
  TN1576               0.13   1151.29     50.82      8.98
  TN1577               0.20   1151.29     51.26     11.03
  TN1578               0.07   1151.31     51.70     11.11
  TN1579               0.13   1151.30     51.69      9.55
  TN1580               0.07   1151.31     52.13     10.91
  TN1581               0.13   1151.30     52.13     19.20
  TN1582               0.13   1151.30     53.86     18.23
  TN1583               0.27   1151.29     52.99     20.24
  TN1584               0.07   1151.31     53.43     23.00
  TN1585               0.33   1151.28     54.72     18.42
  TN1586               0.27   1151.29     55.16     18.41
  TN1587               0.13   1151.31     55.16     18.42
  TN1588               0.27   1151.28     56.02     18.42
  TN1589               0.27   1151.30     56.03     19.04
  TN1590               0.07   1151.33     56.91     19.04
  TN1591               0.13   1151.33     56.90     19.04
  TN1592               0.20   1151.31     58.20     19.02
  TN1593               0.13   1151.34     57.77     20.57
  TN1594               0.13   1151.34     58.64     20.71
  TN1595               0.27   1151.33     58.64     20.45
  TN1596               0.00   1151.35     58.65     21.23
  TN1597               0.20   1151.33     58.64     21.46
  TN1598               0.20   1151.33     59.07     21.46
  TN1599               0.20   1151.34     59.08     21.42
  TN1600               0.33   1151.30     59.06     21.45
  IN1602               0.00   1150.97     49.82     13.20
  IN1603               0.00   1150.97     49.38     11.94
  IN1604               0.00   1151.00     48.53     15.46
  IN1605               0.00   1151.02     48.97     12.77
  IN1601               0.00   1150.95     51.54     18.23
  IN1606               0.00   1151.03     48.98      9.99
  IN1607               0.00   1151.04     48.98     10.13
  IN1608               0.00   1151.08     49.43     12.00
  IN1609               0.00   1151.12     50.31     14.41
  IN1610               0.00   1151.16     51.20     22.12
  IN1611               0.00   1151.20     54.25     23.00
  IN1612               0.00   1151.20     55.11     20.42
  IN1613               0.00   1151.24     56.43     15.92
  IN1614               0.00   1151.28     56.89      9.02
  IN1615               0.00   1151.32     57.33      6.72
  TN1616               0.00   1150.97     51.12     23.00
  TN1617               0.07   1150.97     49.82     23.00
  TN1618               0.13   1150.97     49.38     23.00
  TN1619               0.20   1150.97     49.38     23.00
  TN1620               0.07   1151.00     48.96     23.00
  TN1621               0.07   1151.00     48.96     23.00
  TN1622               0.27   1151.02     48.97     21.86
  TN1623               0.27   1151.04     48.98     22.90
  TN1624               0.00   1151.04     48.98     23.00
  TN1625               0.20   1151.08     49.43     23.00
  TN1626               0.07   1151.08     49.43     23.00
  TN1627               0.13   1151.12     49.88     23.00
  TN1628               0.33   1151.12     50.31     23.00
  TN1629               0.07   1151.16     50.76     23.00
  TN1630               0.07   1151.16     51.20     23.00
  TN1631               0.13   1151.20     53.81     23.00
  TN1632               0.27   1151.20     54.68     23.00
  TN1633               0.20   1151.20     55.11     23.00
  TN1634               0.33   1151.20     55.55     23.00
  TN1635               0.07   1151.24     56.43     23.00
  TN1636               0.13   1151.24     56.87     23.00
  TN1637               0.07   1151.28     57.32     23.00
  TN1638               0.07   1151.28     57.32     23.00
  TN1639               0.00   1151.32     57.33     23.00
  IN1640               0.00   1151.04     48.11     16.50
  IN1641               0.00   1151.08     48.13     16.03
  IN1642               0.00   1151.15     49.03     15.37
  IN1643               0.00   1151.15     50.76     22.91
  IN1644               0.00   1151.23     52.09     22.06
  IN1645               0.00   1151.24     53.40     17.07
  IN1646               0.00   1151.25     54.70     13.60
  IN1647               0.00   1151.34     56.04     12.53
  IN1648               0.00   1151.35     55.61     14.43
  TN1649               0.20   1151.08     48.13     23.00
  TN1650               0.13   1151.08     48.56     23.00
  TN1651               0.27   1151.15     48.59     22.43
  TN1652               0.13   1151.15     49.03     23.00
  TN1653               0.33   1151.15     49.46     23.00
  TN1654               0.33   1151.15     50.76     23.00
  TN1655               0.20   1151.23     51.66     23.00
  TN1656               0.07   1151.23     52.09     23.00
  TN1657               0.07   1151.24     53.40     23.00
  TN1658               0.27   1151.24     53.83     23.00
  TN1659               0.27   1151.25     54.70     23.00
  TN1660               0.27   1151.25     55.14     23.00
  TN1661               0.07   1151.34     55.61     23.00
  TN1662               0.07   1151.34     56.04     23.00
  TN1663               0.00   1151.35     56.48     23.00
  TN1664               0.33   1151.35     56.48     23.00
  IN1665               0.00   1151.92     48.06      7.44
  IN1666               0.00   1153.23     48.63      1.99
  IN1667               0.00   1152.02     56.34     13.88
  IN1668               0.00   1152.28     46.05      3.95
  IN1669               0.00   1152.20     53.81     12.47
  IN1670               0.00   1151.92     48.06      4.27
  IN1671               0.00   1151.87     48.47      3.93
  IN1672               0.00   1151.82     49.32      4.61
  IN1673               0.00   1151.79     50.17      4.74
  IN1674               0.00   1151.75     51.46      4.92
  IN1675               0.00   1151.72     54.48      5.39
  IN1676               0.00   1151.70     55.77      5.87
  IN1677               0.00   1151.68     56.19     10.25
  IN1678               0.00   1151.68     56.62     15.21
  IN1679               0.00   1151.68     57.06     15.10
  IN1680               0.00   1153.12     48.58      2.10
  IN1681               0.00   1152.92     48.93      2.35
  IN1682               0.00   1152.92     49.36      4.21
  IN1683               0.00   1152.74     50.58      4.40
  IN1684               0.00   1152.55     52.67      4.71
  IN1685               0.00   1152.40     54.33      5.07
  IN1686               0.00   1152.24     55.56      7.33
  IN1687               0.00   1152.09     55.93     13.62
  IN1688               0.00   1152.54     47.90      2.75
  IN1689               0.00   1152.54     48.33      5.01
  IN1690               0.00   1152.45     49.59      5.25
  IN1691               0.00   1152.45     50.89      7.79
  IN1692               0.00   1152.37     52.15      8.06
  IN1693               0.00   1152.29     53.42      8.45
  IN1694               0.00   1152.23     54.26      9.21
  IN1695               0.00   1152.16     54.67     11.58
  IN1696               0.00   1152.27     46.48      4.16
  IN1697               0.00   1152.27     46.91      7.74
  IN1698               0.00   1152.25     48.64      8.29
  IN1699               0.00   1152.24     49.93      8.95
  IN1700               0.00   1152.24     51.67     18.16
  IN1701               0.00   1152.23     52.53     23.00
  IN1702               0.00   1152.21     53.82     11.01
  IN1703               0.00   1152.20     53.82     11.73
  TN1704               0.13   1151.90     48.05      4.23
  TN1705               0.20   1151.90     48.05      4.27
  TN1706               0.27   1151.90     48.05      4.27
  TN1707               0.13   1151.90     48.05      4.23
  TN1708               0.13   1151.85     48.47      3.93
  TN1709               0.20   1151.85     48.47      4.54
  TN1710               0.27   1151.84     48.46      3.93
  TN1711               0.00   1151.87     48.47      4.54
  TN1712               0.33   1151.78     48.87      4.80
  TN1713               0.20   1151.81     49.31      4.80
  TN1715               0.20   1151.81     49.31      4.53
  TN1714               0.40   1151.79     49.31      4.68
  TN1716               0.13   1151.78     49.73      4.53
  TN1717               0.13   1151.78     50.60      4.91
  TN1719               0.07   1151.78     50.60      4.91
  TN1718               0.07   1151.78     50.17      4.71
  TN1720               0.20   1151.74     51.02      4.92
  TN1721               0.40   1151.71     51.87      4.92
  TN1722               0.07   1151.75     51.02      4.92
  TN1723               0.13   1151.74     54.05      4.92
  TN1726               0.07   1151.72     54.47      5.39
  TN1724               0.20   1151.70     52.73      5.22
  TN1725               0.33   1151.70     54.90      5.39
  TN1727               0.27   1151.68     55.32      5.77
  TN1728               0.00   1151.70     55.33      5.94
  TN1729               0.07   1151.70     55.76      5.78
  TN1732               0.27   1151.67     56.18      8.95
  TN1730               0.40   1151.65     56.18      8.95
  TN1731               0.13   1151.67     56.62      8.18
  TN1734               0.27   1151.66     56.61     15.00
  TN1735               0.07   1151.67     57.05     15.21
  TN1733               0.27   1151.66     56.61     14.95
  TN1738               0.27   1151.66     57.05     14.42
  TN1736               0.13   1151.66     57.05     14.42
  TN1737               0.07   1151.67     57.05     14.48
  TN1739               0.27   1153.10     48.57      2.08
  TN1740               0.13   1153.10     48.57      2.92
  TN1741               0.27   1153.10     48.57      2.08
  TN1742               0.20   1153.10     48.57      2.07
  TN1743               0.00   1152.92     48.93      2.35
  TN1744               0.07   1152.91     49.36      3.04
  TN1745               0.07   1152.91     48.93      2.10
  TN1746               0.20   1152.91     48.92      2.33
  TN1747               0.20   1152.90     49.35      4.21
  TN1748               0.13   1152.91     49.79      4.10
  TN1749               0.33   1152.89     49.35      4.21
  TN1750               0.27   1152.90     49.78      4.21
  TN1751               0.13   1152.73     50.14      4.25
  TN1752               0.13   1152.72     50.58      4.24
  TN1753               0.07   1152.73     50.58      4.40
  TN1754               0.33   1152.71     51.00      4.40
  TN1755               0.33   1152.52     52.65      4.71
  TN1756               0.33   1152.52     53.09      4.71
  TN1757               0.40   1152.52     51.79      4.71
  TN1758               0.33   1152.53     53.09      4.71
  TN1759               0.27   1152.38     53.89      5.07
  TN1760               0.40   1152.37     54.32      5.07
  TN1761               0.07   1152.39     54.33      5.82
  TN1762               0.07   1152.39     54.77      5.07
  TN1763               0.13   1152.23     55.13      5.64
  TN1764               0.20   1152.22     55.99      5.64
  TN1765               0.33   1152.21     55.55      6.18
  TN1766               0.07   1152.23     56.00      6.68
  TN1767               0.13   1152.08     55.93     11.18
  TN1768               0.13   1152.07     56.79     13.06
  TN1769               0.07   1152.08     56.37     11.18
  TN1770               0.20   1152.07     56.79     10.48
  TN1771               0.27   1152.54     47.90     17.56
  TN1772               0.07   1152.54     47.90     23.00
  TN1773               0.20   1152.54     47.90     23.00
  TN1774               0.07   1152.54     48.33     23.00
  TN1775               0.20   1152.54     47.90     23.00
  TN1776               0.40   1152.54     48.33     23.00
  TN1777               0.33   1152.54     48.33     23.00
  TN1778               0.13   1152.54     48.33     23.00
  TN1779               0.20   1152.45     49.16     23.00
  TN1780               0.20   1152.45     49.59     23.00
  TN1781               0.27   1152.45     48.72     12.34
  TN1782               0.13   1152.45     49.59     23.00
  TN1783               0.07   1152.45     50.46     23.00
  TN1784               0.13   1152.45     50.89     23.00
  TN1785               0.13   1152.45     50.46     23.00
  TN1786               0.13   1152.45     50.89     23.00
  TN1789               0.27   1152.37     51.72     23.00
  TN1790               0.27   1152.37     52.59     23.00
  TN1787               0.07   1152.37     51.72     23.00
  TN1788               0.20   1152.37     52.15     23.00
  TN1791               0.27   1152.29     52.99     23.00
  TN1792               0.13   1152.29     53.42     23.00
  TN1793               0.33   1152.29     53.42     12.21
  TN1794               0.27   1152.29     53.42     23.00
  TN1795               0.20   1152.23     53.83     23.00
  TN1796               0.07   1152.23     54.26     23.00
  TN1797               0.13   1152.23     54.26     23.00
  TN1798               0.20   1152.23     54.69     23.00
  TN1799               0.07   1152.16     54.67     23.00
  TN1800               0.40   1152.16     54.67     23.00
  TN1801               0.07   1152.16     55.10     23.00
  TN1802               0.27   1152.16     55.10     23.00
  TN1805               0.27   1152.27     46.48     23.00
  TN1803               0.13   1152.27     46.48     23.00
  TN1804               0.07   1152.27     46.48     23.00
  TN1806               0.27   1152.27     46.48     23.00
  TN1807               0.13   1152.27     46.48     23.00
  TN1808               0.00   1152.27     46.91     23.00
  TN1809               0.27   1152.27     46.91     23.00
  TN1810               0.00   1152.27     47.78     23.00
  TN1811               0.00   1152.25     48.21     23.00
  TN1812               0.07   1152.25     48.21     23.00
  TN1813               0.20   1152.25     48.21     23.00
  TN1814               0.13   1152.25     49.07     23.00
  TN1815               0.00   1152.24     49.50     23.00
  TN1816               0.07   1152.24     50.37     23.00
  TN1817               0.00   1152.24     49.50     23.00
  TN1818               0.00   1152.24     50.37     23.00
  TN1819               0.33   1152.24     51.23     23.00
  TN1820               0.13   1152.24     51.67     23.00
  TN1821               0.13   1152.24     51.23     23.00
  TN1822               0.27   1152.24     51.67     23.00
  TN1823               0.13   1152.23     52.53     23.00
  TN1824               0.07   1152.23     52.96     23.00
  TN1825               0.13   1152.23     52.53     23.00
  TN1826               0.13   1152.23     52.96     23.00
  TN1827               0.00   1152.21     53.39     23.00
  TN1828               0.27   1152.21     53.82     23.00
  TN1829               0.20   1152.21     53.39     23.00
  TN1830               0.00   1152.21     53.82     23.00
  TN1831               0.13   1152.20     53.82     23.00
  TN1832               0.40   1152.20     53.82     23.00
  TN1833               0.13   1152.20     53.82     23.00
  TN1834               0.40   1152.20     53.82     23.00
  Aquifer           -170.63    930.00      0.00      0.00  Reservoir
  SurfaceResrvr    -1107.04   1030.00      0.00      0.00  Reservoir
  Tank               911.55   1149.92     47.63     22.58  Tank
   
  Analysis ended Fri Oct 07 15:53:56 2022
