  Page 1                                    Fri Apr 22 08:11:20 2022

  ******************************************************************
  *                           E P A N E T                          *
  *                   Hydraulic and Water Quality                  *
  *                   Analysis for Pipe Networks                   *
  *                         Version 2.2                            *
  ******************************************************************
  
  Pipe	Map	Name:	Pipenet6.shp
  Node	Map	Name:	Epanmap.shp
  Mon	Jul	18	13:25:42	2005
   
      Input Data File ................... temp.inp
      Number of Junctions................ 1574
      Number of Reservoirs............... 2
      Number of Tanks ................... 1
      Number of Pipes ................... 1415
      Number of Pumps ................... 8
      Number of Valves .................. 196
      Headloss Formula .................. Darcy-Weisbach
      Nodal Demand Model ................ DDA
      Hydraulic Timestep ................ 1.00 hrs
      Hydraulic Accuracy ................ 0.001000
      Status Check Frequency ............ 2
      Maximum Trials Checked ............ 10
      Damping Limit Threshold ........... 0.000000
      Maximum Trials .................... 40
      Quality Analysis .................. Chemical
      Water Quality Time Step ........... 5.00 min
      Water Quality Tolerance ........... 0.01 mg/L
      Specific Gravity .................. 1.00
      Relative Kinematic Viscosity ...... 1.00
      Relative Chemical Diffusivity ..... 1.00
      Demand Multiplier ................. 1.00
      Total Duration .................... 10.00 hrs
      Reporting Criteria:
         All Nodes
         No Links
   
  Analysis begun Fri Apr 22 08:11:20 2022

   
  Hydraulic Status:
  -----------------------------------------------------------------------
     0:00:00: Balanced after 38 trials
     0:00:00: Reservoir Aquifer is emptying
     0:00:00: Reservoir SurfaceResrvr is emptying
     0:00:00: Tank Tank is filling at 115.00 ft
   
     0:06:00: Pump HSP#1 changed by rule 7
     0:06:00: Balanced after 6 trials
     0:06:00: Reservoir Aquifer is closed
     0:06:00: Reservoir SurfaceResrvr is closed
     0:06:00: Tank Tank is emptying at 115.40 ft
     0:06:00: CV 1 changed from open to closed
     0:06:00: Pump HSP#1 changed from open to closed
   
  WARNING: Pump WellPump#1 closed because cannot deliver head at 0:06:00 hrs.
  WARNING: Pump WellPump#2 closed because cannot deliver head at 0:06:00 hrs.
  WARNING: Pump WellPump#3 closed because cannot deliver head at 0:06:00 hrs.
  WARNING: Pump WellPump#4 closed because cannot deliver head at 0:06:00 hrs.
   
     1:00:00: Balanced after 1 trials
   
  WARNING: Pump WellPump#1 closed because cannot deliver head at 1:00:00 hrs.
  WARNING: Pump WellPump#2 closed because cannot deliver head at 1:00:00 hrs.
  WARNING: Pump WellPump#3 closed because cannot deliver head at 1:00:00 hrs.
  WARNING: Pump WellPump#4 closed because cannot deliver head at 1:00:00 hrs.
  WARNING: Pump ResvrPump closed because cannot deliver head at 1:00:00 hrs.
   
     2:00:00: Balanced after 2 trials
   
  WARNING: Pump WellPump#1 closed because cannot deliver head at 2:00:00 hrs.
  WARNING: Pump WellPump#2 closed because cannot deliver head at 2:00:00 hrs.
  WARNING: Pump WellPump#3 closed because cannot deliver head at 2:00:00 hrs.
  WARNING: Pump WellPump#4 closed because cannot deliver head at 2:00:00 hrs.
  WARNING: Pump ResvrPump closed because cannot deliver head at 2:00:00 hrs.
   
     3:00:00: Balanced after 2 trials
   
  WARNING: Pump WellPump#1 closed because cannot deliver head at 3:00:00 hrs.
  WARNING: Pump WellPump#2 closed because cannot deliver head at 3:00:00 hrs.
  WARNING: Pump WellPump#3 closed because cannot deliver head at 3:00:00 hrs.
  WARNING: Pump WellPump#4 closed because cannot deliver head at 3:00:00 hrs.
  WARNING: Pump ResvrPump closed because cannot deliver head at 3:00:00 hrs.
   
     4:00:00: Balanced after 3 trials
   
  WARNING: Pump WellPump#1 closed because cannot deliver head at 4:00:00 hrs.
  WARNING: Pump WellPump#2 closed because cannot deliver head at 4:00:00 hrs.
  WARNING: Pump WellPump#3 closed because cannot deliver head at 4:00:00 hrs.
  WARNING: Pump WellPump#4 closed because cannot deliver head at 4:00:00 hrs.
   
     4:30:00: Pump HSP#3 changed by rule 6
     4:30:00: Balanced after 10 trials
     4:30:00: Reservoir Aquifer is emptying
     4:30:00: Reservoir SurfaceResrvr is emptying
     4:30:00: Tank Tank is filling at 109.84 ft
     4:30:00: CV 1 changed from closed to open
     4:30:00: Pump HSP#3 changed from closed to open
   
     4:36:00: Pump HSP#3 changed by rule 7
     4:36:00: Balanced after 6 trials
     4:36:00: Reservoir Aquifer is closed
     4:36:00: Reservoir SurfaceResrvr is closed
     4:36:00: Tank Tank is emptying at 110.19 ft
     4:36:00: CV 1 changed from open to closed
     4:36:00: Pump HSP#3 changed from open to closed
   
  WARNING: Pump WellPump#1 closed because cannot deliver head at 4:36:00 hrs.
  WARNING: Pump WellPump#2 closed because cannot deliver head at 4:36:00 hrs.
  WARNING: Pump WellPump#3 closed because cannot deliver head at 4:36:00 hrs.
  WARNING: Pump WellPump#4 closed because cannot deliver head at 4:36:00 hrs.
   
     4:48:00: Pump HSP#3 changed by rule 6
     4:48:00: Balanced after 10 trials
     4:48:00: Reservoir Aquifer is emptying
     4:48:00: Reservoir SurfaceResrvr is emptying
     4:48:00: Tank Tank is filling at 109.86 ft
     4:48:00: CV 1 changed from closed to open
     4:48:00: Pump HSP#3 changed from closed to open
   
     4:54:00: Pump HSP#3 changed by rule 7
     4:54:00: Balanced after 6 trials
     4:54:00: Reservoir Aquifer is closed
     4:54:00: Reservoir SurfaceResrvr is closed
     4:54:00: Tank Tank is emptying at 110.21 ft
     4:54:00: CV 1 changed from open to closed
     4:54:00: Pump HSP#3 changed from open to closed
   
  WARNING: Pump WellPump#1 closed because cannot deliver head at 4:54:00 hrs.
  WARNING: Pump WellPump#2 closed because cannot deliver head at 4:54:00 hrs.
  WARNING: Pump WellPump#3 closed because cannot deliver head at 4:54:00 hrs.
  WARNING: Pump WellPump#4 closed because cannot deliver head at 4:54:00 hrs.
   
     5:00:00: Balanced after 3 trials
   
  WARNING: Pump WellPump#1 closed because cannot deliver head at 5:00:00 hrs.
  WARNING: Pump WellPump#2 closed because cannot deliver head at 5:00:00 hrs.
  WARNING: Pump WellPump#3 closed because cannot deliver head at 5:00:00 hrs.
  WARNING: Pump WellPump#4 closed because cannot deliver head at 5:00:00 hrs.
  WARNING: Pump ResvrPump closed because cannot deliver head at 5:00:00 hrs.
   
     5:06:00: Pump HSP#3 changed by rule 6
     5:06:00: Balanced after 11 trials
     5:06:00: Reservoir Aquifer is emptying
     5:06:00: Reservoir SurfaceResrvr is emptying
     5:06:00: Tank Tank is filling at 109.83 ft
     5:06:00: CV 1 changed from closed to open
     5:06:00: Pump HSP#3 changed from closed to open
   
     5:12:00: Pump HSP#3 changed by rule 7
     5:12:00: Balanced after 6 trials
     5:12:00: Reservoir Aquifer is closed
     5:12:00: Reservoir SurfaceResrvr is closed
     5:12:00: Tank Tank is emptying at 110.15 ft
     5:12:00: CV 1 changed from open to closed
     5:12:00: Pump HSP#3 changed from open to closed
   
  WARNING: Pump WellPump#1 closed because cannot deliver head at 5:12:00 hrs.
  WARNING: Pump WellPump#2 closed because cannot deliver head at 5:12:00 hrs.
  WARNING: Pump WellPump#3 closed because cannot deliver head at 5:12:00 hrs.
  WARNING: Pump WellPump#4 closed because cannot deliver head at 5:12:00 hrs.
  WARNING: Pump ResvrPump closed because cannot deliver head at 5:12:00 hrs.
   
     5:18:00: Pump HSP#3 changed by rule 6
     5:18:00: Balanced after 11 trials
     5:18:00: Reservoir Aquifer is emptying
     5:18:00: Reservoir SurfaceResrvr is emptying
     5:18:00: Tank Tank is filling at 109.94 ft
     5:18:00: CV 1 changed from closed to open
     5:18:00: Pump HSP#3 changed from closed to open
   
     5:24:00: Pump HSP#3 changed by rule 7
     5:24:00: Balanced after 6 trials
     5:24:00: Reservoir Aquifer is closed
     5:24:00: Reservoir SurfaceResrvr is closed
     5:24:00: Tank Tank is emptying at 110.25 ft
     5:24:00: CV 1 changed from open to closed
     5:24:00: Pump HSP#3 changed from open to closed
   
  WARNING: Pump WellPump#1 closed because cannot deliver head at 5:24:00 hrs.
  WARNING: Pump WellPump#2 closed because cannot deliver head at 5:24:00 hrs.
  WARNING: Pump WellPump#3 closed because cannot deliver head at 5:24:00 hrs.
  WARNING: Pump WellPump#4 closed because cannot deliver head at 5:24:00 hrs.
  WARNING: Pump ResvrPump closed because cannot deliver head at 5:24:00 hrs.
   
     5:36:00: Pump HSP#3 changed by rule 6
     5:36:00: Balanced after 11 trials
     5:36:00: Reservoir Aquifer is emptying
     5:36:00: Reservoir SurfaceResrvr is emptying
     5:36:00: Tank Tank is filling at 109.83 ft
     5:36:00: CV 1 changed from closed to open
     5:36:00: Pump HSP#3 changed from closed to open
   
     5:42:00: Pump HSP#3 changed by rule 7
     5:42:00: Balanced after 6 trials
     5:42:00: Reservoir Aquifer is closed
     5:42:00: Reservoir SurfaceResrvr is closed
     5:42:00: Tank Tank is emptying at 110.15 ft
     5:42:00: CV 1 changed from open to closed
     5:42:00: Pump HSP#3 changed from open to closed
   
  WARNING: Pump WellPump#1 closed because cannot deliver head at 5:42:00 hrs.
  WARNING: Pump WellPump#2 closed because cannot deliver head at 5:42:00 hrs.
  WARNING: Pump WellPump#3 closed because cannot deliver head at 5:42:00 hrs.
  WARNING: Pump WellPump#4 closed because cannot deliver head at 5:42:00 hrs.
   
     5:48:00: Pump HSP#3 changed by rule 6
     5:48:00: Balanced after 11 trials
     5:48:00: Reservoir Aquifer is emptying
     5:48:00: Reservoir SurfaceResrvr is emptying
     5:48:00: Tank Tank is filling at 109.94 ft
     5:48:00: CV 1 changed from closed to open
     5:48:00: Pump HSP#3 changed from closed to open
   
     5:54:00: Pump HSP#3 changed by rule 7
     5:54:00: Balanced after 6 trials
     5:54:00: Reservoir Aquifer is closed
     5:54:00: Reservoir SurfaceResrvr is closed
     5:54:00: Tank Tank is emptying at 110.25 ft
     5:54:00: CV 1 changed from open to closed
     5:54:00: Pump HSP#3 changed from open to closed
   
  WARNING: Pump WellPump#1 closed because cannot deliver head at 5:54:00 hrs.
  WARNING: Pump WellPump#2 closed because cannot deliver head at 5:54:00 hrs.
  WARNING: Pump WellPump#3 closed because cannot deliver head at 5:54:00 hrs.
  WARNING: Pump WellPump#4 closed because cannot deliver head at 5:54:00 hrs.
   
     6:00:00: Pump HSP#1 changed by rule 3
     6:00:00: Balanced after 11 trials
     6:00:00: Reservoir Aquifer is emptying
     6:00:00: Reservoir SurfaceResrvr is emptying
     6:00:00: Tank Tank is filling at 110.04 ft
     6:00:00: CV 1 changed from closed to open
     6:00:00: Pump HSP#1 changed from closed to open
   
     6:24:00: Pump HSP#1 changed by rule 4
     6:24:00: Balanced after 6 trials
     6:24:00: Reservoir Aquifer is closed
     6:24:00: Reservoir SurfaceResrvr is closed
     6:24:00: Tank Tank is emptying at 111.15 ft
     6:24:00: CV 1 changed from open to closed
     6:24:00: Pump HSP#1 changed from open to closed
   
  WARNING: Pump WellPump#1 closed because cannot deliver head at 6:24:00 hrs.
  WARNING: Pump WellPump#2 closed because cannot deliver head at 6:24:00 hrs.
  WARNING: Pump WellPump#3 closed because cannot deliver head at 6:24:00 hrs.
  WARNING: Pump WellPump#4 closed because cannot deliver head at 6:24:00 hrs.
  WARNING: Pump ResvrPump closed because cannot deliver head at 6:24:00 hrs.
   
     6:30:00: Pump HSP#1 changed by rule 3
     6:30:00: Balanced after 17 trials
     6:30:00: Reservoir Aquifer is emptying
     6:30:00: Reservoir SurfaceResrvr is emptying
     6:30:00: Tank Tank is filling at 110.91 ft
     6:30:00: CV 1 changed from closed to open
     6:30:00: Pump HSP#1 changed from closed to open
   
     6:36:00: Pump HSP#1 changed by rule 4
     6:36:00: Balanced after 6 trials
     6:36:00: Reservoir Aquifer is closed
     6:36:00: Reservoir SurfaceResrvr is closed
     6:36:00: Tank Tank is emptying at 111.18 ft
     6:36:00: CV 1 changed from open to closed
     6:36:00: Pump HSP#1 changed from open to closed
   
  WARNING: Pump WellPump#1 closed because cannot deliver head at 6:36:00 hrs.
  WARNING: Pump WellPump#2 closed because cannot deliver head at 6:36:00 hrs.
  WARNING: Pump WellPump#3 closed because cannot deliver head at 6:36:00 hrs.
  WARNING: Pump WellPump#4 closed because cannot deliver head at 6:36:00 hrs.
  WARNING: Pump ResvrPump closed because cannot deliver head at 6:36:00 hrs.
   
     6:42:00: Pump HSP#1 changed by rule 3
     6:42:00: Balanced after 17 trials
     6:42:00: Reservoir Aquifer is emptying
     6:42:00: Reservoir SurfaceResrvr is emptying
     6:42:00: Tank Tank is filling at 110.94 ft
     6:42:00: CV 1 changed from closed to open
     6:42:00: Pump HSP#1 changed from closed to open
   
     6:48:00: Pump HSP#1 changed by rule 4
     6:48:00: Balanced after 6 trials
     6:48:00: Reservoir Aquifer is closed
     6:48:00: Reservoir SurfaceResrvr is closed
     6:48:00: Tank Tank is emptying at 111.21 ft
     6:48:00: CV 1 changed from open to closed
     6:48:00: Pump HSP#1 changed from open to closed
   
  WARNING: Pump WellPump#1 closed because cannot deliver head at 6:48:00 hrs.
  WARNING: Pump WellPump#2 closed because cannot deliver head at 6:48:00 hrs.
  WARNING: Pump WellPump#3 closed because cannot deliver head at 6:48:00 hrs.
  WARNING: Pump WellPump#4 closed because cannot deliver head at 6:48:00 hrs.
   
     6:54:00: Pump HSP#1 changed by rule 3
     6:54:00: Balanced after 17 trials
     6:54:00: Reservoir Aquifer is emptying
     6:54:00: Reservoir SurfaceResrvr is emptying
     6:54:00: Tank Tank is filling at 110.97 ft
     6:54:00: CV 1 changed from closed to open
     6:54:00: Pump HSP#1 changed from closed to open
   
     7:00:00: Pump HSP#1 changed by rule 4
     7:00:00: Balanced after 5 trials
     7:00:00: Reservoir Aquifer is closed
     7:00:00: Reservoir SurfaceResrvr is closed
     7:00:00: Tank Tank is emptying at 111.24 ft
     7:00:00: CV 1 changed from open to closed
     7:00:00: Pump HSP#1 changed from open to closed
   
  WARNING: Pump WellPump#1 closed because cannot deliver head at 7:00:00 hrs.
  WARNING: Pump WellPump#2 closed because cannot deliver head at 7:00:00 hrs.
  WARNING: Pump WellPump#3 closed because cannot deliver head at 7:00:00 hrs.
  WARNING: Pump WellPump#4 closed because cannot deliver head at 7:00:00 hrs.
   
     7:06:00: Pump HSP#1 changed by rule 3
     7:06:00: Balanced after 30 trials
     7:06:00: Reservoir Aquifer is emptying
     7:06:00: Reservoir SurfaceResrvr is emptying
     7:06:00: Tank Tank is filling at 110.97 ft
     7:06:00: CV 1 changed from closed to open
     7:06:00: Pump HSP#1 changed from closed to open
   
     7:12:00: Pump HSP#1 changed by rule 4
     7:12:00: Balanced after 5 trials
     7:12:00: Reservoir Aquifer is closed
     7:12:00: Reservoir SurfaceResrvr is closed
     7:12:00: Tank Tank is emptying at 111.22 ft
     7:12:00: CV 1 changed from open to closed
     7:12:00: Pump HSP#1 changed from open to closed
   
  WARNING: Pump WellPump#1 closed because cannot deliver head at 7:12:00 hrs.
  WARNING: Pump WellPump#2 closed because cannot deliver head at 7:12:00 hrs.
  WARNING: Pump WellPump#3 closed because cannot deliver head at 7:12:00 hrs.
  WARNING: Pump WellPump#4 closed because cannot deliver head at 7:12:00 hrs.
  WARNING: Pump ResvrPump closed because cannot deliver head at 7:12:00 hrs.
   
     7:18:00: Pump HSP#1 changed by rule 3
     7:18:00: Balanced after 30 trials
     7:18:00: Reservoir Aquifer is emptying
     7:18:00: Reservoir SurfaceResrvr is emptying
     7:18:00: Tank Tank is filling at 110.95 ft
     7:18:00: CV 1 changed from closed to open
     7:18:00: Pump HSP#1 changed from closed to open
   
     7:24:00: Pump HSP#1 changed by rule 4
     7:24:00: Balanced after 5 trials
     7:24:00: Reservoir Aquifer is closed
     7:24:00: Reservoir SurfaceResrvr is closed
     7:24:00: Tank Tank is emptying at 111.20 ft
     7:24:00: CV 1 changed from open to closed
     7:24:00: Pump HSP#1 changed from open to closed
   
  WARNING: Pump WellPump#1 closed because cannot deliver head at 7:24:00 hrs.
  WARNING: Pump WellPump#2 closed because cannot deliver head at 7:24:00 hrs.
  WARNING: Pump WellPump#3 closed because cannot deliver head at 7:24:00 hrs.
  WARNING: Pump WellPump#4 closed because cannot deliver head at 7:24:00 hrs.
  WARNING: Pump ResvrPump closed because cannot deliver head at 7:24:00 hrs.
   
     7:30:00: Pump HSP#1 changed by rule 3
     7:30:00: Balanced after 30 trials
     7:30:00: Reservoir Aquifer is emptying
     7:30:00: Reservoir SurfaceResrvr is emptying
     7:30:00: Tank Tank is filling at 110.93 ft
     7:30:00: CV 1 changed from closed to open
     7:30:00: Pump HSP#1 changed from closed to open
   
     7:36:00: Pump HSP#1 changed by rule 4
     7:36:00: Balanced after 5 trials
     7:36:00: Reservoir Aquifer is closed
     7:36:00: Reservoir SurfaceResrvr is closed
     7:36:00: Tank Tank is emptying at 111.18 ft
     7:36:00: CV 1 changed from open to closed
     7:36:00: Pump HSP#1 changed from open to closed
   
  WARNING: Pump WellPump#1 closed because cannot deliver head at 7:36:00 hrs.
  WARNING: Pump WellPump#2 closed because cannot deliver head at 7:36:00 hrs.
  WARNING: Pump WellPump#3 closed because cannot deliver head at 7:36:00 hrs.
  WARNING: Pump WellPump#4 closed because cannot deliver head at 7:36:00 hrs.
  WARNING: Pump ResvrPump closed because cannot deliver head at 7:36:00 hrs.
   
     7:42:00: Pump HSP#1 changed by rule 3
     7:42:00: Balanced after 30 trials
     7:42:00: Reservoir Aquifer is emptying
     7:42:00: Reservoir SurfaceResrvr is emptying
     7:42:00: Tank Tank is filling at 110.91 ft
     7:42:00: CV 1 changed from closed to open
     7:42:00: Pump HSP#1 changed from closed to open
   
     7:48:00: Pump HSP#1 changed by rule 4
     7:48:00: Balanced after 5 trials
     7:48:00: Reservoir Aquifer is closed
     7:48:00: Reservoir SurfaceResrvr is closed
     7:48:00: Tank Tank is emptying at 111.16 ft
     7:48:00: CV 1 changed from open to closed
     7:48:00: Pump HSP#1 changed from open to closed
   
  WARNING: Pump WellPump#1 closed because cannot deliver head at 7:48:00 hrs.
  WARNING: Pump WellPump#2 closed because cannot deliver head at 7:48:00 hrs.
  WARNING: Pump WellPump#3 closed because cannot deliver head at 7:48:00 hrs.
  WARNING: Pump WellPump#4 closed because cannot deliver head at 7:48:00 hrs.
  WARNING: Pump ResvrPump closed because cannot deliver head at 7:48:00 hrs.
   
     7:54:00: Pump HSP#1 changed by rule 3
     7:54:00: Balanced after 30 trials
     7:54:00: Reservoir Aquifer is emptying
     7:54:00: Reservoir SurfaceResrvr is emptying
     7:54:00: Tank Tank is filling at 110.89 ft
     7:54:00: CV 1 changed from closed to open
     7:54:00: Pump HSP#1 changed from closed to open
   
     8:00:00: Pump HSP#1 changed by rule 7
     8:00:00: Balanced after 5 trials
     8:00:00: Reservoir Aquifer is closed
     8:00:00: Reservoir SurfaceResrvr is closed
     8:00:00: Tank Tank is emptying at 111.14 ft
     8:00:00: CV 1 changed from open to closed
     8:00:00: Pump HSP#1 changed from open to closed
   
  WARNING: Pump WellPump#1 closed because cannot deliver head at 8:00:00 hrs.
  WARNING: Pump WellPump#2 closed because cannot deliver head at 8:00:00 hrs.
  WARNING: Pump WellPump#3 closed because cannot deliver head at 8:00:00 hrs.
  WARNING: Pump WellPump#4 closed because cannot deliver head at 8:00:00 hrs.
  WARNING: Pump ResvrPump closed because cannot deliver head at 8:00:00 hrs.
   
     8:24:00: Pump HSP#3 changed by rule 6
     8:24:00: Balanced after 30 trials
     8:24:00: Reservoir Aquifer is emptying
     8:24:00: Reservoir SurfaceResrvr is emptying
     8:24:00: Tank Tank is filling at 109.90 ft
     8:24:00: CV 1 changed from closed to open
     8:24:00: Pump HSP#3 changed from closed to open
   
     8:30:00: Pump HSP#3 changed by rule 7
     8:30:00: Balanced after 5 trials
     8:30:00: Reservoir Aquifer is closed
     8:30:00: Reservoir SurfaceResrvr is closed
     8:30:00: Tank Tank is emptying at 110.12 ft
     8:30:00: CV 1 changed from open to closed
     8:30:00: Pump HSP#3 changed from open to closed
   
  WARNING: Pump WellPump#1 closed because cannot deliver head at 8:30:00 hrs.
  WARNING: Pump WellPump#2 closed because cannot deliver head at 8:30:00 hrs.
  WARNING: Pump WellPump#3 closed because cannot deliver head at 8:30:00 hrs.
  WARNING: Pump WellPump#4 closed because cannot deliver head at 8:30:00 hrs.
   
     8:36:00: Pump HSP#3 changed by rule 6
     8:36:00: Balanced after 30 trials
     8:36:00: Reservoir Aquifer is emptying
     8:36:00: Reservoir SurfaceResrvr is emptying
     8:36:00: Tank Tank is filling at 109.81 ft
     8:36:00: CV 1 changed from closed to open
     8:36:00: Pump HSP#3 changed from closed to open
   
     8:42:00: Pump HSP#3 changed by rule 7
     8:42:00: Balanced after 5 trials
     8:42:00: Reservoir Aquifer is closed
     8:42:00: Reservoir SurfaceResrvr is closed
     8:42:00: Tank Tank is emptying at 110.02 ft
     8:42:00: CV 1 changed from open to closed
     8:42:00: Pump HSP#3 changed from open to closed
   
  WARNING: Pump WellPump#1 closed because cannot deliver head at 8:42:00 hrs.
  WARNING: Pump WellPump#2 closed because cannot deliver head at 8:42:00 hrs.
  WARNING: Pump WellPump#3 closed because cannot deliver head at 8:42:00 hrs.
  WARNING: Pump WellPump#4 closed because cannot deliver head at 8:42:00 hrs.
  WARNING: Pump ResvrPump closed because cannot deliver head at 8:42:00 hrs.
   
     8:48:00: Pump HSP#3 changed by rule 6
     8:48:00: Balanced after 30 trials
     8:48:00: Reservoir Aquifer is emptying
     8:48:00: Reservoir SurfaceResrvr is emptying
     8:48:00: Tank Tank is filling at 109.71 ft
     8:48:00: CV 1 changed from closed to open
     8:48:00: Pump HSP#3 changed from closed to open
   
     9:00:00: Pump HSP#3 changed by rule 7
     9:00:00: Balanced after 5 trials
     9:00:00: Reservoir Aquifer is closed
     9:00:00: Reservoir SurfaceResrvr is closed
     9:00:00: Tank Tank is emptying at 110.15 ft
     9:00:00: CV 1 changed from open to closed
     9:00:00: Pump HSP#3 changed from open to closed
   
  WARNING: Pump WellPump#1 closed because cannot deliver head at 9:00:00 hrs.
  WARNING: Pump WellPump#2 closed because cannot deliver head at 9:00:00 hrs.
  WARNING: Pump WellPump#3 closed because cannot deliver head at 9:00:00 hrs.
  WARNING: Pump WellPump#4 closed because cannot deliver head at 9:00:00 hrs.
   
     9:06:00: Pump HSP#3 changed by rule 6
     9:06:00: Balanced after 29 trials
     9:06:00: Reservoir Aquifer is emptying
     9:06:00: Reservoir SurfaceResrvr is emptying
     9:06:00: Tank Tank is filling at 109.82 ft
     9:06:00: CV 1 changed from closed to open
     9:06:00: Pump HSP#3 changed from closed to open
   
     9:12:00: Pump HSP#3 changed by rule 7
     9:12:00: Balanced after 5 trials
     9:12:00: Reservoir Aquifer is closed
     9:12:00: Reservoir SurfaceResrvr is closed
     9:12:00: Tank Tank is emptying at 110.01 ft
     9:12:00: CV 1 changed from open to closed
     9:12:00: Pump HSP#3 changed from open to closed
   
  WARNING: Pump WellPump#1 closed because cannot deliver head at 9:12:00 hrs.
  WARNING: Pump WellPump#2 closed because cannot deliver head at 9:12:00 hrs.
  WARNING: Pump WellPump#3 closed because cannot deliver head at 9:12:00 hrs.
  WARNING: Pump WellPump#4 closed because cannot deliver head at 9:12:00 hrs.
  WARNING: Pump ResvrPump closed because cannot deliver head at 9:12:00 hrs.
   
     9:18:00: Pump HSP#3 changed by rule 6
     9:18:00: Balanced after 29 trials
     9:18:00: Reservoir Aquifer is emptying
     9:18:00: Reservoir SurfaceResrvr is emptying
     9:18:00: Tank Tank is filling at 109.68 ft
     9:18:00: CV 1 changed from closed to open
     9:18:00: Pump HSP#3 changed from closed to open
   
     9:30:00: Pump HSP#3 changed by rule 7
     9:30:00: Balanced after 5 trials
     9:30:00: Reservoir Aquifer is closed
     9:30:00: Reservoir SurfaceResrvr is closed
     9:30:00: Tank Tank is emptying at 110.08 ft
     9:30:00: CV 1 changed from open to closed
     9:30:00: Pump HSP#3 changed from open to closed
   
  WARNING: Pump WellPump#1 closed because cannot deliver head at 9:30:00 hrs.
  WARNING: Pump WellPump#2 closed because cannot deliver head at 9:30:00 hrs.
  WARNING: Pump WellPump#3 closed because cannot deliver head at 9:30:00 hrs.
  WARNING: Pump WellPump#4 closed because cannot deliver head at 9:30:00 hrs.
  WARNING: Pump ResvrPump closed because cannot deliver head at 9:30:00 hrs.
   
     9:36:00: Pump HSP#3 changed by rule 6
     9:36:00: Balanced after 29 trials
     9:36:00: Reservoir Aquifer is emptying
     9:36:00: Reservoir SurfaceResrvr is emptying
     9:36:00: Tank Tank is filling at 109.75 ft
     9:36:00: CV 1 changed from closed to open
     9:36:00: Pump HSP#3 changed from closed to open
   
     9:48:00: Pump HSP#3 changed by rule 7
     9:48:00: Balanced after 5 trials
     9:48:00: Reservoir Aquifer is closed
     9:48:00: Reservoir SurfaceResrvr is closed
     9:48:00: Tank Tank is emptying at 110.14 ft
     9:48:00: CV 1 changed from open to closed
     9:48:00: Pump HSP#3 changed from open to closed
   
  WARNING: Pump WellPump#1 closed because cannot deliver head at 9:48:00 hrs.
  WARNING: Pump WellPump#2 closed because cannot deliver head at 9:48:00 hrs.
  WARNING: Pump WellPump#3 closed because cannot deliver head at 9:48:00 hrs.
  WARNING: Pump WellPump#4 closed because cannot deliver head at 9:48:00 hrs.
  WARNING: Pump ResvrPump closed because cannot deliver head at 9:48:00 hrs.
   
     9:54:00: Pump HSP#3 changed by rule 6
     9:54:00: Balanced after 29 trials
     9:54:00: Reservoir Aquifer is emptying
     9:54:00: Reservoir SurfaceResrvr is emptying
     9:54:00: Tank Tank is filling at 109.81 ft
     9:54:00: CV 1 changed from closed to open
     9:54:00: Pump HSP#3 changed from closed to open
   
    10:00:00: Pump HSP#3 changed by rule 7
    10:00:00: Balanced after 6 trials
    10:00:00: Reservoir Aquifer is closed
    10:00:00: Reservoir SurfaceResrvr is closed
    10:00:00: Tank Tank is emptying at 110.01 ft
    10:00:00: CV 1 changed from open to closed
    10:00:00: Pump HSP#3 changed from open to closed
   
  WARNING: Pump WellPump#1 closed because cannot deliver head at 10:00:00 hrs.
  WARNING: Pump WellPump#2 closed because cannot deliver head at 10:00:00 hrs.
  WARNING: Pump WellPump#3 closed because cannot deliver head at 10:00:00 hrs.
  WARNING: Pump WellPump#4 closed because cannot deliver head at 10:00:00 hrs.
  WARNING: Pump ResvrPump closed because cannot deliver head at 10:00:00 hrs.
   
  Water Quality Mass Balance (mg)
  ================================
  Initial Mass:       0.00000e+00
  Mass Inflow:        2.05200e+10
  Mass Outflow:       1.39839e+10
  Mass Reacted:       0.00000e+00
  Final Mass:         6.53613e+09
  Mass Ratio:         1.00000
  ================================

   
  Node Results at 0:00:00 hrs:
  --------------------------------------------------------
                     Demand      Head  Pressure  Chemical
  Node                  gpm        ft       psi      mg/L
  --------------------------------------------------------
  IN0                  0.00   1155.98     51.99      0.00
  TN1                  3.51   1155.98     51.99      0.00
  IN2                  0.00   1156.05     51.15      0.00
  TN3                  4.33   1156.05     51.59      0.00
  IN4                  0.00   1156.20     51.22      0.00
  TN5                  0.53   1156.20     51.22      0.00
  IN6                  0.00   1156.22     51.22      0.00
  TN7                  5.85   1156.21     51.22      0.00
  IN8                  0.00   1156.08     51.16      0.00
  TN9                  0.49   1156.08     51.16      0.00
  IN10                 0.00   1155.96     51.98      0.00
  TN11                 7.29   1155.95     51.97      0.00
  TN13                 0.36   1156.30     51.26      0.00
  TN15                 4.52   1156.28     51.25      0.00
  IN16                 0.00   1156.34     51.71      0.00
  TN17                 3.02   1156.34     51.71      0.00
  TN19                 6.46   1156.34     52.14      0.00
  TN21                 4.25   1156.38     55.19      0.00
  TN23                 7.13   1156.37     55.19      0.00
  TN25                 0.53   1156.45     57.39      0.00
  TN27                 9.43   1156.53     58.29      0.00
  TN29                 4.73   1156.55     59.17      0.00
  TN31                 0.14   1156.28     54.29      0.00
  TN33                 0.07   1156.29     52.55      0.00
  IN34                 0.00   1156.29     52.12      0.00
  TN35                 0.00   1156.29     52.12      0.00
  TN37                 0.00   1156.29     51.69      0.00
  TN39                 0.01   1156.29     51.69      0.00
  TN41                 0.07   1156.28     51.68      0.00
  TN43                 0.07   1156.29     51.69      0.00
  IN44                 0.00   1156.29     51.69      0.00
  TN45                 0.21   1156.28     51.68      0.00
  TN47                 0.14   1156.32     51.70      0.00
  TN49                 0.07   1156.32     52.14      0.00
  TN51                 0.00   1156.37     52.16      0.00
  IN52                 0.00   1156.37     52.59      0.00
  TN53                 0.07   1156.36     52.59      0.00
  TN55                 0.14   1156.40     53.47      0.00
  TN57                 0.00   1156.41     53.91      0.00
  IN58                 0.00   1156.45     56.09      0.00
  TN59                 0.07   1156.44     54.35      0.00
  TN61                 0.07   1156.44     56.09      0.00
  TN63                 0.07   1156.29     51.25      0.00
  IN64                 0.00   1156.31     51.70      0.00
  TN65                 0.00   1156.31     51.70      0.00
  TN67                 0.00   1156.33     51.71      0.00
  IN68                 0.00   1156.35     52.15      0.00
  TN69                 0.00   1156.35     52.15      0.00
  TN71                 0.14   1156.36     52.15      0.00
  IN72                 0.00   1156.39     52.60      0.00
  TN73                 0.07   1156.39     52.60      0.00
  IN74                 0.00   1156.41     53.47      0.00
  TN75                 0.00   1156.41     53.47      0.00
  TN77                 0.00   1156.45     54.36      0.00
  TN79                 0.14   1156.44     56.08      0.00
  IN80                 0.00   1156.49     57.41      0.00
  TN81                 0.07   1156.48     56.97      0.00
  TN83                 0.14   1156.48     57.84      0.00
  TN85                 0.00   1156.49     56.97      0.00
  TN87                 0.21   1156.47     57.83      0.00
  TN89                 0.14   1156.52     58.29      0.00
  IN90                 0.00   1156.54     59.16      0.00
  TN91                 0.07   1156.53     59.16      0.00
  TN93                 0.14   1156.52     58.29      0.00
  TN95                 0.07   1156.53     59.59      0.00
  TN97                 0.00   1156.58     60.05      0.00
  IN98                 0.00   1156.58     60.05      0.00
  TN99                 0.07   1156.57     60.48      0.00
  TN101                0.07   1156.57     60.04      0.00
  TN103                0.00   1156.58     60.48      0.00
  IN104                0.00   1156.63     60.93      0.00
  TN105                0.07   1156.62     60.93      0.00
  TN107                0.00   1156.63     60.93      0.00
  TN109                0.00   1156.63     61.37      0.00
  IN110                0.00   1156.30     53.86      0.00
  TN111                0.00   1156.30     52.56      0.00
  TN113                0.00   1156.30     53.86      0.00
  TN115                0.00   1156.29     51.69      0.00
  TN117                0.07   1156.28     52.12      0.00
  IN118                0.00   1156.29     51.25      0.00
  TN119                0.14   1156.28     51.25      0.00
  IN120                0.00   1156.29     51.69      0.00
  TN121                0.07   1156.28     51.69      0.00
  IN122                0.00   1156.28     51.25      0.00
  TN123                0.07   1156.28     51.25      0.00
  TN125                0.07   1156.72     57.94      0.00
  TN127                0.00   1156.73     57.51      0.00
  TN129                0.00   1156.73     57.08      0.00
  TN131                0.14   1156.72     57.51      0.00
  TN133                0.14   1156.72     57.07      0.00
  TN135                0.14   1156.65     56.18      0.00
  TN137                0.07   1156.66     56.18      0.00
  TN139                0.07   1156.66     55.75      0.00
  IN140                0.00   1156.62     54.87      0.00
  TN141                0.07   1156.62     55.30      0.00
  TN143                0.00   1156.62     54.87      0.00
  TN145                0.07   1156.61     52.70      0.00
  TN147                0.14   1156.53     52.23      0.00
  TN149                0.14   1156.53     54.39      0.00
  IN150                0.00   1156.55     52.23      0.00
  TN151                0.21   1156.53     51.79      0.00
  IN152                0.00   1156.47     51.33      0.00
  TN153                0.00   1156.47     51.33      0.00
  TN155                0.07   1156.46     51.33      0.00
  TN157                0.07   1156.46     50.89      0.00
  TN159                0.00   1156.55     51.80      0.00
  TN161                0.07   1156.46     50.89      0.00
  IN162                0.00   1156.44     50.45      0.00
  TN163                0.07   1156.43     50.45      0.00
  IN164                0.00   1156.47     50.90      0.00
  TN165                0.14   1156.46     50.89      0.00
  TN166                0.07   1156.43     50.45      0.00
  TN167                0.14   1156.43     50.45      0.00
  TN169                0.14   1156.08     50.30      0.00
  TN170                0.00   1156.09     50.30      0.00
  TN171                0.14   1156.08     50.30      0.00
  IN172                0.00   1156.51     50.48      0.00
  TN173                0.14   1156.50     50.48      0.00
  IN174                0.00   1156.48     50.47      0.00
  TN175                0.07   1156.47     50.47      0.00
  IN176                0.00   1156.28     50.38      0.00
  TN177                0.07   1156.27     50.38      0.00
  IN178                0.00   1156.31     50.40      0.00
  TN179                0.07   1156.31     50.40      0.00
  TN181                0.07   1155.73     50.14      0.00
  TN182                0.14   1155.72     50.14      0.00
  TN183                0.14   1155.72     50.58      0.00
  TN184                0.07   1155.73     50.58      0.00
  TN186                0.14   1155.39     50.43      0.00
  TN187                0.00   1155.41     50.87      0.00
  TN188                0.07   1155.40     50.44      0.00
  TN189                0.14   1155.39     50.87      0.00
  TN191                0.07   1164.16     54.23      0.00
  TN193                0.00   1164.17     54.24      0.00
  TN195                0.00   1162.73     53.18      0.00
  TN197                0.21   1160.59     52.25      0.00
  TN199                0.21   1160.58     52.25      0.00
  TN201                0.00   1159.54     51.80      0.00
  TN203                0.14   1157.93     51.10      0.00
  TN205                0.14   1157.99     51.13      0.00
  TN207                0.00   1157.95     51.11      0.00
  TN209                0.07   1157.94     51.10      0.00
  TN211                0.00   1157.77     51.03      0.00
  TN213                0.00   1157.77     51.46      0.00
  TN215                0.14   1157.75     51.46      0.00
  TN217                0.07   1157.81     51.05      0.00
  TN219                0.14   1157.58     51.38      0.00
  TN221                0.07   1157.59     52.25      0.00
  TN222                0.07   1157.59     51.82      0.00
  TN224                0.14   1157.64     51.41      0.00
  TN226                0.07   1157.50     52.65      0.00
  TN227                0.14   1157.49     53.08      0.00
  TN228                0.07   1157.50     53.08      0.00
  TN230                0.07   1157.58     52.25      0.00
  TN232                0.07   1157.39     53.90      0.00
  TN234                0.14   1157.39     54.33      0.00
  TN236                0.14   1157.39     54.76      0.00
  TN238                0.00   1157.27     56.01      0.00
  TN239                0.07   1157.26     55.14      0.00
  TN240                0.07   1157.26     56.01      0.00
  TN242                0.07   1157.17     56.84      0.00
  TN243                0.00   1157.17     57.27      0.00
  TN244                0.00   1157.17     57.70      0.00
  TN245                0.00   1157.96     50.68      0.00
  IN246                0.00   1157.96     50.68      0.00
  TN247                0.00   1157.96     50.68      0.00
  TN248                0.00   1157.96     51.11      0.00
  TN249                0.07   1157.96     51.11      0.00
  IN250                0.00   1157.83     51.06      0.00
  TN251                0.07   1157.83     51.05      0.00
  TN252                0.28   1157.81     51.05      0.00
  TN253                0.00   1157.83     51.06      0.00
  TN254                0.00   1157.83     51.06      0.00
  IN255                0.00   1157.70     51.43      0.00
  TN256                0.00   1157.70     51.43      0.00
  TN257                0.07   1157.70     51.43      0.00
  TN258                0.07   1157.70     51.87      0.00
  TN259                0.07   1157.70     51.43      0.00
  TN261                0.00   1157.58     53.98      0.00
  TN262                0.00   1157.58     52.68      0.00
  TN263                0.07   1157.57     52.24      0.00
  TN264                0.07   1157.57     52.68      0.00
  IN265                0.00   1157.45     54.79      0.00
  TN266                0.23   1157.43     55.22      0.00
  TN267                0.07   1157.44     54.79      0.00
  TN268                0.07   1157.45     55.22      0.00
  TN269                0.21   1157.43     54.35      0.00
  TN271                0.00   1157.33     56.47      0.00
  TN272                0.21   1157.31     56.90      0.00
  TN273                0.14   1157.32     56.03      0.00
  TN274                0.07   1157.33     56.04      0.00
  TN276                0.21   1156.75     59.25      0.00
  TN278                0.00   1156.77     59.70      0.00
  TN280                0.07   1156.77     59.69      0.00
  TN282                0.00   1156.76     59.26      0.00
  TN284                0.07   1156.76     59.26      0.00
  TN286                0.00   1156.76     58.39      0.00
  TN288                0.07   1156.72     58.38      0.00
  TN290                0.07   1157.06     57.66      0.00
  TN291                0.07   1157.06     59.39      0.00
  TN293                0.00   1157.05     59.38      0.00
  TN294                0.07   1157.04     59.38      0.00
  TN295                0.00   1157.05     59.38      0.00
  TN297                0.07   1157.03     59.37      0.00
  TN299                0.21   1157.02     59.80      0.00
  TN300                0.00   1157.04     59.81      0.00
  TN302                0.07   1157.28     57.32      0.00
  TN303                0.00   1157.28     57.75      0.00
  TN304                0.00   1157.28     57.32      0.00
  TN305                0.07   1157.28     56.88      0.00
  TN307                0.14   1157.25     57.30      0.00
  TN308                0.21   1157.25     58.17      0.00
  TN309                0.00   1157.27     58.18      0.00
  TN310                0.07   1157.26     57.31      0.00
  IN311                0.00   1157.33     56.47      0.00
  TN312                0.00   1157.33     56.47      0.00
  TN313                0.07   1157.33     56.90      0.00
  TN314                0.00   1157.33     56.47      0.00
  TN315                0.00   1157.33     56.47      0.00
  IN316                0.00   1157.34     56.48      0.00
  TN317                0.00   1157.34     56.48      0.00
  TN318                0.07   1157.33     56.91      0.00
  TN319                0.07   1157.34     56.47      0.00
  TN320                0.07   1157.33     56.04      0.00
  IN321                0.00   1157.35     55.61      0.00
  TN322                0.07   1157.34     55.61      0.00
  TN323                0.07   1157.34     55.61      0.00
  TN324                0.07   1157.35     55.18      0.00
  TN325                0.14   1157.34     55.18      0.00
  IN326                0.00   1157.36     54.32      0.00
  TN327                0.14   1157.35     54.31      0.00
  TN328                0.14   1157.35     54.75      0.00
  TN329                0.00   1157.36     53.89      0.00
  TN330                0.07   1157.35     53.88      0.00
  IN331                0.00   1157.37     52.59      0.00
  TN332                0.07   1157.36     52.59      0.00
  TN333                0.07   1157.36     53.02      0.00
  TN334                0.00   1157.37     52.16      0.00
  TN335                0.00   1157.37     52.16      0.00
  IN336                0.00   1157.38     51.29      0.00
  TN337                0.07   1157.37     51.29      0.00
  TN338                0.21   1157.36     51.72      0.00
  TN339                0.07   1157.37     51.29      0.00
  TN340                0.07   1157.37     50.86      0.00
  IN341                0.00   1157.39     50.43      0.00
  TN342                0.00   1157.39     50.43      0.00
  TN343                0.14   1157.37     50.86      0.00
  TN344                0.07   1157.38     49.99      0.00
  TN345                0.14   1157.38     49.56      0.00
  IN346                0.00   1157.40     49.14      0.00
  TN347                0.21   1157.38     49.56      0.00
  TN348                0.00   1157.40     49.14      0.00
  TN349                0.14   1157.39     49.13      0.00
  IN350                0.00   1157.40     49.14      0.00
  TN351                0.14   1157.39     49.13      0.00
  IN352                0.00   1157.40     48.70      0.00
  TN353                0.07   1157.39     48.70      0.00
  TN354                0.07   1157.39     48.70      0.00
  IN355                0.00   1157.39     49.13      0.00
  TN356                0.07   1157.38     49.13      0.00
  TN357                0.00   1157.39     49.13      0.00
  IN358                0.00   1157.38     49.56      0.00
  TN359                0.07   1157.37     49.56      0.00
  TN360                0.00   1157.38     50.86      0.00
  IN361                0.00   1157.38     52.16      0.00
  TN362                0.07   1157.37     51.72      0.00
  TN363                0.00   1157.38     52.59      0.00
  IN364                0.00   1157.37     53.89      0.00
  TN365                0.21   1157.35     53.88      0.00
  TN366                0.00   1157.37     54.32      0.00
  IN367                0.00   1157.36     55.19      0.00
  TN368                0.07   1157.35     54.75      0.00
  TN369                0.00   1157.36     55.62      0.00
  IN370                0.00   1157.35     56.05      0.00
  TN371                0.14   1157.34     56.04      0.00
  TN372                0.07   1157.35     56.48      0.00
  IN373                0.00   1157.35     56.48      0.00
  TN374                0.00   1157.35     56.48      0.00
  TN375                0.14   1157.33     56.47      0.00
  TN379                3.22   1163.64     51.84      0.00
  TN381                2.58   1163.65     52.28      0.00
  TN383                3.35   1163.64     53.57      0.00
  TN385                2.96   1163.66     54.01      0.00
  TN387                2.45   1163.65     51.84      0.00
  TN389                4.64   1163.59     52.25      0.00
  TN391                2.96   1163.64     53.14      0.00
  TN393                3.22   1163.64     53.57      0.00
  TN395               12.03   1159.67     49.69      0.00
  TN397               12.03   1159.66     50.12      0.00
  TN399               12.03   1159.68     50.56      0.00
  TN401               12.03   1159.74     51.88      0.00
  TN403               12.03   1159.65     50.11      0.00
  TN405               12.03   1159.72     50.58      0.00
  TN407               12.03   1159.73     51.01      0.00
  TN409               12.03   1159.85     51.93      0.00
  TN411                0.00   1156.78     54.93      0.00
  IN412                0.00   1156.78     56.23      0.00
  TN413                0.00   1156.78     55.80      0.00
  IN414                0.00   1156.77     54.93      0.00
  TN415                0.07   1156.76     54.49      0.00
  TN416                0.07   1156.76     54.93      0.00
  IN417                0.00   1156.76     53.63      0.00
  TN418                0.07   1156.75     52.32      0.00
  TN420                0.00   1156.76     52.33      0.00
  TN422                0.14   1156.74     52.32      0.00
  IN423                0.00   1156.76     52.76      0.00
  TN424                0.07   1156.75     52.32      0.00
  TN426                0.14   1156.74     52.31      0.00
  IN427                0.00   1156.75     52.75      0.00
  TN428                0.07   1156.74     52.32      0.00
  TN430                0.00   1156.74     53.62      0.00
  IN431                0.00   1156.74     53.62      0.00
  TN432                0.07   1156.74     54.05      0.00
  TN434                0.07   1156.73     54.48      0.00
  IN435                0.00   1156.74     54.48      0.00
  TN436                0.00   1156.74     54.92      0.00
  TN438                0.14   1156.72     55.34      0.00
  TN440                0.07   1156.73     55.78      0.00
  IN441                0.00   1156.72     61.41      0.00
  TN442                0.07   1156.72     61.41      0.00
  TN444                0.14   1156.71     61.84      0.00
  TN446                0.00   1156.73     61.41      0.00
  IN447                0.00   1156.73     61.41      0.00
  TN448                0.14   1156.71     61.40      0.00
  IN449                0.00   1156.73     60.11      0.00
  TN450                0.07   1156.72     60.98      0.00
  TN452                0.07   1156.72     60.11      0.00
  TN454                0.00   1156.73     59.25      0.00
  IN455                0.00   1156.73     58.38      0.00
  TN456                0.07   1156.73     58.38      0.00
  IN457                0.00   1156.74     53.62      0.00
  TN458                9.87   1156.58     55.28      0.00
  TN459                5.00   1156.36     55.19      0.00
  TN460                5.50   1156.30     54.73      0.00
  IN461                0.00   1159.67     57.05      0.00
  TN462                0.03   1159.66     57.48      0.00
  IN463                0.00   1159.65     57.04      0.00
  TN464                0.03   1159.65     57.04      0.00
  TN466                0.07   1159.54     57.86      0.00
  IN467                0.00   1159.64     58.34      0.00
  TN468                0.14   1159.64     58.34      0.00
  TN469                0.21   1159.54     57.43      0.00
  TN470                0.00   1159.64     58.34      0.00
  TN472                0.07   1159.49     58.28      0.00
  TN474                0.21   1159.05     58.08      0.00
  TN476                0.14   1158.62     57.90      0.00
  TN478                0.00   1159.50     58.28      0.00
  TN479                0.14   1159.05     58.08      0.00
  TN480                0.34   1158.62     57.90      0.00
  TN482                0.07   1158.18     57.71      0.00
  TN484                0.14   1157.61     57.03      0.00
  IN485                0.00   1157.23     56.43      0.00
  TN486                0.07   1157.23     56.86      0.00
  TN488                0.14   1156.86     56.27      0.00
  IN489                0.00   1156.52     55.26      0.00
  TN490                0.07   1156.52     55.26      0.00
  TN492                0.03   1157.61     57.03      0.00
  TN494                0.03   1156.86     55.40      0.00
  TN496                0.21   1164.53     59.59      0.00
  TN498                0.00   1168.39     61.70      0.00
  TN499                0.14   1164.53     59.59      0.00
  TN501                0.00   1168.55     61.77      0.00
  IN502                0.00   1163.53     60.03      0.00
  TN503                7.46   1163.47     60.00      0.00
  IN504                0.00   1162.75     59.69      0.00
  TN505                0.14   1162.75     59.69      0.00
  TN507                0.07   1167.69     61.83      0.00
  IN508                0.00   1159.81     58.41      0.00
  TN509                0.07   1159.81     58.41      0.00
  IN510                0.00   1159.70     58.37      0.00
  TN511                0.04   1159.70     58.37      0.00
  IN512                0.00   1159.50     55.68      0.00
  TN513                0.03   1159.50     56.11      0.00
  TN514                0.03   1159.50     55.68      0.00
  TN516                0.03   1165.46     58.70      0.00
  TN518                0.03   1187.53     69.13      0.00
  TN520                0.28   1198.11     73.71      0.00
  TN522                0.00   1205.94     77.10      0.00
  TN524                0.04   1214.25     81.14      0.00
  TN526                0.14   1222.11     84.54      0.00
  TN528                0.28   1185.89     67.98      0.00
  TN530                0.07   1168.12     59.41      0.00
  TN532                0.07   1155.18     53.37      0.00
  TN534                0.14   1155.18     51.21      0.00
  TN536                0.00   1214.70     80.90      0.00
  TN537                0.07   1214.70     81.33      0.00
  TN539                0.00   1186.11     67.64      0.00
  TN540                0.14   1186.11     68.51      0.00
  TN542                0.00   1159.76     53.19      0.00
  TN543                0.07   1159.76     53.19      0.00
  TN545                0.07   1159.61     54.86      0.00
  TN547                0.21   1159.60     53.99      0.00
  TN549                0.07   1159.68     53.59      0.00
  TN551                0.07   1159.49     55.67      0.00
  TN552                0.14   1159.48     55.24      0.00
  TN554                0.07   1159.44     56.95      0.00
  TN555                0.14   1159.44     56.95      0.00
  TN557                0.21   1160.57     55.27      0.00
  TN559                0.21   1160.58     56.14      0.00
  TN561                0.07   1160.60     57.46      0.00
  TN562                0.00   1160.60     54.42      0.00
  TN564                0.07   1160.59     55.28      0.00
  TN565                0.00   1160.60     56.16      0.00
  TN566                0.00   1160.61     57.46      0.00
  TN568                0.14   1161.85     57.13      0.00
  TN569                0.14   1161.85     57.13      0.00
  TN571                0.14   1161.46     57.40      0.00
  TN573                0.00   1161.75     57.09      0.00
  TN575                0.07   1161.48     56.54      0.00
  TN577                0.00   1159.65     49.68      0.00
  TN579                0.00   1159.71     50.14      0.00
  TN581                0.07   1159.75     51.02      0.00
  TN583                0.07   1159.81     51.48      0.00
  TN585                0.07   1159.65     50.11      0.00
  TN587                0.07   1159.75     51.46      0.00
  TN589                0.00   1159.81     52.35      0.00
  TN591                0.00   1160.55     52.67      0.00
  TN593                0.07   1160.56     53.54      0.00
  TN595                0.00   1160.59     54.42      0.00
  TN596                0.07   1160.54     51.79      0.00
  TN598                0.07   1160.56     53.10      0.00
  TN599                0.00   1160.59     53.55      0.00
  TN601                0.00   1161.30     56.46      0.00
  TN603                0.07   1161.23     55.56      0.00
  TN605                0.07   1161.15     54.23      0.00
  TN607                0.07   1161.15     53.36      0.00
  TN609                0.07   1161.22     56.43      0.00
  TN610                0.14   1161.28     56.88      0.00
  TN612                0.00   1254.30     97.62      0.00
  TN614                0.07   1236.30     89.39      0.00
  TN616                0.00   1220.30     82.02      0.00
  TN618                0.14   1205.93     74.93      0.00
  TN620                0.07   1161.27     54.28      0.00
  TN622                0.07   1161.36     56.49      0.00
  TN624                0.00   1162.11     57.24      0.00
  TN626                0.14   1161.25     54.27      0.00
  TN628                0.00   1161.40     56.07      0.00
  TN630                0.14   1164.09     57.24      0.00
  TN632                0.00   1161.25     46.04      0.00
  TN634                0.14   1161.25     50.80      0.00
  TN636                0.21   1161.25     53.84      0.00
  TN638                0.07   1161.40     54.33      0.00
  TN640                0.07   1161.40     55.63      0.00
  TN642                0.14   1164.09     55.50      0.00
  TN644                0.21   1164.09     56.80      0.00
  TN646                0.14   1164.09     55.94      0.00
  TN648                0.07   1164.10     56.80      0.00
  TN650                0.21   1164.09     56.80      0.00
  TN652                0.00   1164.10     57.24      0.00
  TN654                0.14   1164.09     57.24      0.00
  TN656                0.21   1164.09     58.10      0.00
  TN658                0.07   1164.10     58.10      0.00
  VN659                0.00   1164.10     58.10      0.00
  TN660                0.21   1164.09     58.10      0.00
  TN662                0.14   1329.08    128.73      0.00
  TN664                0.00   1328.63    128.96      0.00
  VN665                0.00   1328.13    128.75      0.00
  TN666                0.14   1328.13    128.75      0.00
  TN668                0.00   1327.73    129.01      0.00
  TN670                0.00   1327.45    128.88      0.00
  TN672                0.07   1327.12    128.74      0.00
  TN674                0.14   1326.85    128.62      0.00
  TN676                0.07   1326.56    128.93      0.00
  TN678                0.14   1271.87    104.80      0.00
  TN679                0.14   1327.45    128.45      0.00
  TN681                0.14   1328.27    128.37      0.00
  TN683                0.07   1328.92    128.22      0.00
  TN685                5.41   1159.56     46.17      0.00
  TN687                3.97   1159.60     46.62      0.00
  TN689                0.07   1159.62     47.50      0.00
  TN691                0.00   1159.63     47.94      0.00
  TN693                0.07   1159.62     48.80      0.00
  TN695                0.07   1159.62     49.23      0.00
  TN697                0.07   1159.01     46.80      0.00
  TN699                0.14   1159.00     46.80      0.00
  TN701                0.00   1159.01     46.80      0.00
  TN703                0.00   1159.01     47.23      0.00
  TN705                0.00   1159.01     47.23      0.00
  TN707                0.14   1159.00     47.66      0.00
  TN709                0.00   1159.01     50.27      0.00
  TN711                0.00   1159.01     51.13      0.00
  TN713                0.07   1159.62     47.93      0.00
  TN715                0.21   1159.61     49.23      0.00
  TN717                0.14   1158.99     51.56      0.00
  TN719                0.07   1158.99     52.42      0.00
  TN721                0.14   1158.98     52.85      0.00
  TN723                0.14   1158.97     53.72      0.00
  TN725                0.07   1158.87     55.41      0.00
  IN726                0.00   1158.71     55.77      0.00
  TN727                0.21   1158.69     55.76      0.00
  TN729                0.07   1158.52     57.42      0.00
  TN731                0.14   1158.32     57.34      0.00
  TN733                0.14   1158.15     57.70      0.00
  TN735                0.14   1157.97     57.61      0.00
  TN737                0.00   1157.77     57.53      0.00
  TN739                0.00   1157.45     58.26      0.00
  TN741                0.00   1157.27     57.31      0.00
  TN743                0.14   1157.05     56.78      0.00
  TN745                0.07   1156.87     56.27      0.00
  TN747                0.07   1160.52     46.16      0.00
  TN749                0.00   1160.53     47.03      0.00
  TN751                0.07   1160.53     47.89      0.00
  TN753                0.07   1160.53     50.49      0.00
  TN755                0.00   1161.13     51.62      0.00
  TN757                0.07   1161.12     52.48      0.00
  TN759                0.07   1161.12     51.18      0.00
  TN761                0.00   1161.13     50.32      0.00
  TN763                0.14   1161.11     49.88      0.00
  TN765                0.07   1161.12     49.45      0.00
  TN767                0.07   1161.24     52.97      0.00
  TN769                0.00   1161.25     51.67      0.00
  TN771                0.07   1161.24     50.80      0.00
  TN773                0.00   1161.25     49.51      0.00
  TN775                0.07   1161.24     49.50      0.00
  TN777                0.07   1161.24     52.97      0.00
  TN779                0.07   1161.24     48.20      0.00
  TN781                0.07   1161.12     48.15      0.00
  TN783                0.14   1161.11     47.28      0.00
  TN785                0.14   1161.11     46.84      0.00
  TN787                0.14   1161.11     46.41      0.00
  TN789                0.00   1161.13     47.72      0.00
  TN791                0.00   1161.25     45.61      0.00
  TN793                0.07   1161.23     46.90      0.00
  TN795                0.14   1161.23     46.46      0.00
  TN797                0.21   1161.22     46.89      0.00
  TN799                0.00   1156.73     58.38      0.00
  TN801                0.14   1157.05     58.52      0.00
  TN802                0.00   1161.36     56.92      0.00
  TN804                0.07   1161.31     56.03      0.00
  TN805                0.00   1161.28     54.71      0.00
  TN807                0.07   1163.51     57.85      0.00
  TN808                0.14   1254.28     96.75      0.00
  TN810                0.14   1271.85    105.23      0.00
  TN812                0.21   1187.38     64.73      0.00
  TN814                2.81   1227.23     82.86      0.00
  TN816                3.54   1193.01     65.43      0.00
  VN817                0.00   1159.69     58.36      0.00
  VN818                0.00   1159.69     58.36      0.00
  VN819                0.00   1159.69     57.49      0.00
  VN820                0.00   1159.69     57.49      0.00
  VN822                0.00   1159.54     56.13      0.00
  VN823                0.00   1159.54     56.13      0.00
  IN824                0.00   1165.46     58.26      0.00
  IN825                0.00   1168.12     59.85      0.00
  VN826                0.00   1168.97     60.22      0.00
  VN827                0.00   1168.97     60.22      0.00
  IN828                0.00   1185.89     67.98      0.00
  VN829                0.00   1187.33     68.61      0.00
  VN830                0.00   1187.33     68.61      0.00
  IN831                0.00   1187.53     68.69      0.00
  IN832                0.00   1156.86     55.84      0.00
  VN833                0.00   1156.87     55.40      0.00
  VN834                0.00   1156.87     55.40      0.00
  IN835                0.00   1155.90     53.25      0.00
  VN836                0.00   1155.92     53.26      0.00
  VN837                0.00   1155.92     53.26      0.00
  VN838                0.00   1155.99     51.56      0.00
  VN839                0.00   1155.99     51.56      0.00
  IN840                0.00   1156.04     51.14      0.00
  VN841                0.00   1156.14     51.19      0.00
  VN842                0.00   1156.14     51.19      0.00
  VN843                0.00   1156.25     51.24      0.00
  VN844                0.00   1156.25     51.24      0.00
  IN845                0.00   1156.27     51.25      0.00
  VN846                0.00   1156.27     51.25      0.00
  VN847                0.00   1156.27     51.25      0.00
  IN848                0.00   1156.29     51.25      0.00
  IN849                0.00   1156.30     51.26      0.00
  VN850                0.00   1156.31     51.70      0.00
  VN851                0.00   1156.31     51.70      0.00
  IN852                0.00   1156.34     51.71      0.00
  IN853                0.00   1156.35     51.71      0.00
  VN854                0.00   1156.35     52.15      0.00
  VN855                0.00   1156.35     52.15      0.00
  VN856                0.00   1156.36     54.75      0.00
  VN857                0.00   1156.36     54.75      0.00
  IN858                0.00   1156.37     55.19      0.00
  IN859                0.00   1156.38     55.19      0.00
  VN860                0.00   1156.42     56.51      0.00
  VN861                0.00   1156.42     56.51      0.00
  IN862                0.00   1156.45     57.39      0.00
  VN863                0.00   1156.49     57.84      0.00
  IN864                0.00   1156.54     58.30      0.00
  IN865                0.00   1156.56     59.17      0.00
  VN866                0.00   1156.57     59.18      0.00
  VN867                0.00   1156.49     57.84      0.00
  VN868                0.00   1156.27     51.25      0.00
  IN869                0.00   1155.17     51.20      0.00
  VN870                0.00   1155.18     51.64      0.00
  VN871                0.00   1155.18     51.64      0.00
  IN872                0.00   1155.18     51.64      0.00
  VN873                0.00   1155.18     52.94      0.00
  VN874                0.00   1155.18     52.94      0.00
  IN875                0.00   1155.18     53.37      0.00
  IN876                0.00   1194.62     72.20      0.00
  IN877                0.00   1198.11     73.71      0.00
  IN878                0.00   1205.94     77.10      0.00
  VN879                0.00   1207.81     77.91      0.00
  VN880                0.00   1207.81     77.91      0.00
  IN881                0.00   1214.25     80.70      0.00
  IN882                0.00   1219.54     83.43      0.00
  IN883                0.00   1222.11     84.54      0.00
  VN884                0.00   1224.66     85.64      0.00
  VN885                0.00   1224.66     85.64      0.00
  IN886                0.00   1226.93     86.63      0.00
  IN887                0.00   1224.77     85.69      0.00
  VN888                0.00   1220.97     84.05      0.00
  VN889                0.00   1220.97     84.05      0.00
  IN890                0.00   1214.70     80.90      0.00
  IN891                0.00   1186.11     67.64      0.00
  IN892                0.00   1161.87     57.14      0.00
  IN893                0.00   1160.61     57.46      0.00
  VN894                0.00   1164.20     59.45      0.00
  VN895                0.00   1164.20     59.45      0.00
  IN896                0.00   1164.53     59.59      0.00
  IN897                0.00   1168.39     61.70      0.00
  IN898                0.00   1168.55     61.77      0.00
  IN901                0.00   1169.80     62.74      0.00
  VN902                0.00   1168.84     62.32      0.00
  VN903                0.00   1168.84     62.32      0.00
  IN904                0.00   1167.69     61.83      0.00
  VN905                0.00   1161.57     59.18      0.00
  VN906                0.00   1161.57     59.18      0.00
  VN907                0.00   1157.61     57.03      0.00
  IN908                0.00   1158.18     57.71      0.00
  VN909                0.00   1158.34     57.77      0.00
  VN910                0.00   1158.34     57.77      0.00
  IN911                0.00   1158.62     57.90      0.00
  VN912                0.00   1159.01     58.07      0.00
  VN913                0.00   1159.01     58.07      0.00
  IN914                0.00   1159.05     58.08      0.00
  IN915                0.00   1159.50     58.28      0.00
  IN916                0.00   1159.70     58.37      0.00
  IN917                0.00   1159.54     57.43      0.00
  VN918                0.00   1159.54     57.43      0.00
  VN919                0.00   1159.54     57.43      0.00
  IN920                0.00   1159.45     56.96      0.00
  VN921                0.00   1158.44     57.39      0.00
  VN922                0.00   1159.56     58.31      0.00
  VN923                0.00   1159.56     58.31      0.00
  VN924                0.00   1160.30     58.62      0.00
  VN925                0.00   1160.30     58.62      0.00
  VN926                0.00   1164.92     60.63      0.00
  VN927                0.00   1164.92     60.63      0.00
  VN928                0.00   1175.07     64.59      0.00
  VN929                0.00   1175.07     64.59      0.00
  VN930                0.00   1226.93     87.06      0.00
  VN931                0.00   1226.93     87.06      0.00
  VN932                0.00   1269.07    104.89      0.00
  VN933                0.00   1172.63     57.90      0.00
  IN934                0.00   1164.17     54.24      0.00
  IN935                0.00   1159.54     51.80      0.00
  IN936                0.00   1158.05     51.15      0.00
  IN937                0.00   1158.01     51.13      0.00
  IN938                0.00   1157.95     51.11      0.00
  IN939                0.00   1157.81     51.05      0.00
  VN940                0.00   1157.80     51.04      0.00
  VN941                0.00   1157.80     51.04      0.00
  IN942                0.00   1157.77     51.03      0.00
  IN943                0.00   1157.69     51.43      0.00
  IN944                0.00   1157.65     51.41      0.00
  IN945                0.00   1157.59     51.82      0.00
  VN946                0.00   1157.58     51.82      0.00
  VN947                0.00   1157.58     51.82      0.00
  IN948                0.00   1157.58     52.25      0.00
  IN949                0.00   1157.51     53.08      0.00
  VN950                0.00   1157.47     53.07      0.00
  VN951                0.00   1157.47     53.07      0.00
  IN953                0.00   1157.40     54.34      0.00
  IN954                0.00   1157.27     55.58      0.00
  VN955                0.00   1157.26     55.58      0.00
  VN956                0.00   1157.26     55.58      0.00
  IN957                0.00   1157.17     57.27      0.00
  IN958                0.00   1157.08     57.66      0.00
  VN959                0.00   1157.07     58.53      0.00
  VN960                0.00   1156.76     58.39      0.00
  IN961                0.00   1156.73     58.38      0.00
  VN962                0.00   1156.73     57.08      0.00
  VN963                0.00   1156.73     57.08      0.00
  IN964                0.00   1156.66     56.18      0.00
  VN966                0.00   1156.62     54.86      0.00
  VN967                0.00   1156.62     54.86      0.00
  VN969                0.00   1156.51     51.35      0.00
  VN970                0.00   1156.47     50.90      0.00
  VN971                0.00   1156.47     50.90      0.00
  IN973                0.00   1156.36     50.42      0.00
  IN974                0.00   1156.09     50.30      0.00
  VN975                0.00   1156.08     50.30      0.00
  VN976                0.00   1156.08     50.30      0.00
  IN978                0.00   1155.74     50.58      0.00
  VN979                0.00   1155.70     50.57      0.00
  VN980                0.00   1155.70     50.57      0.00
  IN981                0.00   1155.41     50.87      0.00
  VN982                0.00   1155.33     50.84      0.00
  VN983                0.00   1155.33     50.84      0.00
  VN984                0.00   1157.29     56.46      0.00
  IN985                0.00   1157.33     56.04      0.00
  IN986                0.00   1157.58     53.11      0.00
  VN987                0.00   1157.62     52.26      0.00
  VN988                0.00   1157.62     52.26      0.00
  VN989                0.00   1157.76     51.46      0.00
  VN990                0.00   1157.76     51.46      0.00
  VN991                0.00   1157.92     51.09      0.00
  VN992                0.00   1157.92     51.09      0.00
  VN993                0.00   1158.03     50.71      0.00
  VN994                0.00   1158.03     50.71      0.00
  IN995                0.00   1158.04     50.71      0.00
  IN996                0.00   1157.40     49.14      0.00
  VN997                0.00   1156.43     50.45      0.00
  VN998                0.00   1156.43     50.45      0.00
  VN999                0.00   1156.60     60.49      0.00
  VN1000               0.00   1156.60     60.49      0.00
  VN1001               0.00   1156.54     59.16      0.00
  VN1002               0.00   1156.54     59.16      0.00
  VN1003               0.00   1156.48     56.97      0.00
  VN1004               0.00   1156.48     56.97      0.00
  VN1005               0.00   1156.43     53.91      0.00
  VN1006               0.00   1156.43     53.91      0.00
  VN1009               0.00   1156.38     52.60      0.00
  VN1010               0.00   1156.38     52.60      0.00
  VN1013               0.00   1156.33     51.71      0.00
  VN1014               0.00   1156.33     51.71      0.00
  VN1015               0.00   1156.29     51.25      0.00
  VN1016               0.00   1156.29     51.25      0.00
  IN1017               0.00   1156.28     51.25      0.00
  VN1018               0.00   1156.29     51.69      0.00
  VN1019               0.00   1156.29     51.69      0.00
  VN1020               0.00   1156.29     52.12      0.00
  VN1021               0.00   1156.29     52.12      0.00
  VN1022               0.00   1156.30     54.29      0.00
  VN1023               0.00   1156.28     51.25      0.00
  IN1024               0.00   1161.86     57.14      0.00
  IN1025               0.00   1161.86     57.14      0.00
  VN1026               0.00   1161.83     57.12      0.00
  VN1027               0.00   1161.83     57.12      0.00
  IN1028               0.00   1161.75     57.09      0.00
  IN1029               0.00   1161.50     56.98      0.00
  IN1030               0.00   1161.35     56.91      0.00
  IN1031               0.00   1161.35     56.91      0.00
  IN1032               0.00   1160.59     54.42      0.00
  IN1033               0.00   1160.59     54.42      0.00
  VN1034               0.00   1160.59     54.42      0.00
  VN1035               0.00   1160.59     54.42      0.00
  IN1036               0.00   1160.60     55.29      0.00
  IN1037               0.00   1160.60     55.72      0.00
  IN1038               0.00   1160.60     56.16      0.00
  IN1039               0.00   1160.60     56.59      0.00
  IN1040               0.00   1160.60     56.59      0.00
  VN1042               0.00   1160.60     57.46      0.00
  VN1043               0.00   1160.60     57.46      0.00
  IN1044               0.00   1159.45     55.66      0.00
  VN1045               0.00   1159.47     55.67      0.00
  VN1046               0.00   1159.47     55.67      0.00
  IN1047               0.00   1159.49     55.68      0.00
  IN1048               0.00   1159.62     54.86      0.00
  IN1049               0.00   1159.69     54.03      0.00
  IN1050               0.00   1159.76     52.76      0.00
  IN1051               0.00   1159.83     52.35      0.00
  VN1052               0.00   1159.83     52.35      0.00
  VN1053               0.00   1159.31     55.60      0.00
  VN1054               0.00   1159.51     55.68      0.00
  VN1055               0.00   1159.51     55.68      0.00
  VN1056               0.00   1160.06     57.22      0.00
  VN1057               0.00   1160.06     57.22      0.00
  VN1058               0.00   1160.65     56.61      0.00
  VN1059               0.00   1160.65     56.61      0.00
  VN1060               0.00   1162.02     57.20      0.00
  VN1061               0.00   1162.02     57.20      0.00
  IN1062               0.00   1164.10     58.10      0.00
  VN1063               0.00   1159.82     52.35      0.00
  VN1064               0.00   1160.62     54.43      0.00
  VN1065               0.00   1160.62     54.43      0.00
  IN1066               0.00   1161.40     56.93      0.00
  VN1067               0.00   1161.25     53.84      0.00
  IN1068               0.00   1161.25     53.84      0.00
  IN1069               0.00   1161.28     54.71      0.00
  IN1070               0.00   1161.32     56.03      0.00
  VN1071               0.00   1161.33     56.04      0.00
  VN1072               0.00   1161.33     56.04      0.00
  IN1073               0.00   1161.36     56.49      0.00
  VN1074               0.00   1161.39     56.93      0.00
  VN1075               0.00   1161.39     56.93      0.00
  IN1076               0.00   1162.11     57.24      0.00
  IN1077               0.00   1163.52     57.86      0.00
  VN1078               0.00   1173.57     62.21      0.00
  VN1079               0.00   1173.57     62.21      0.00
  IN1080               0.00   1280.61    109.02      0.00
  IN1081               0.00   1271.87    105.23      0.00
  VN1082               0.00   1258.32     98.93      0.00
  VN1083               0.00   1258.32     98.93      0.00
  IN1084               0.00   1254.30     97.19      0.00
  IN1085               0.00   1244.74     93.05      0.00
  IN1086               0.00   1236.31     89.40      0.00
  VN1087               0.00   1235.59     89.08      0.00
  VN1088               0.00   1235.59     89.08      0.00
  IN1089               0.00   1227.42     85.11      0.00
  IN1090               0.00   1220.30     81.59      0.00
  VN1091               0.00   1216.34     79.88      0.00
  VN1092               0.00   1216.34     79.88      0.00
  IN1093               0.00   1211.71     76.57      0.00
  IN1094               0.00   1205.95     73.21      0.00
  VN1095               0.00   1193.73     67.91      0.00
  VN1096               0.00   1193.73     67.91      0.00
  IN1097               0.00   1193.29     67.29      0.00
  IN1098               0.00   1187.42     64.74      0.00
  IN1099               0.00   1177.38     59.96      0.00
  VN1101               0.00   1172.63     57.90      0.00
  IN1102               0.00   1161.30     56.46      0.00
  VN1103               0.00   1161.24     56.00      0.00
  VN1104               0.00   1161.24     56.00      0.00
  IN1105               0.00   1161.24     56.00      0.00
  IN1106               0.00   1161.16     54.67      0.00
  IN1107               0.00   1161.13     52.92      0.00
  IN1108               0.00   1161.13     52.92      0.00
  IN1109               0.00   1161.13     52.05      0.00
  IN1110               0.00   1160.53     51.79      0.00
  IN1111               0.00   1160.53     51.79      0.00
  VN1112               0.00   1160.54     51.80      0.00
  VN1113               0.00   1160.54     51.80      0.00
  IN1114               0.00   1160.55     52.23      0.00
  IN1115               0.00   1160.57     53.11      0.00
  IN1116               0.00   1160.59     53.98      0.00
  VN1117               0.00   1160.59     54.42      0.00
  VN1118               0.00   1160.59     54.42      0.00
  VN1119               0.00   1159.83     52.35      0.00
  IN1120               0.00   1159.81     51.92      0.00
  IN1121               0.00   1159.76     51.46      0.00
  IN1122               0.00   1159.71     50.57      0.00
  IN1123               0.00   1159.65     49.68      0.00
  IN1124               0.00   1159.63     49.67      0.00
  VN1125               0.00   1159.63     49.67      0.00
  VN1126               0.00   1269.07    104.89      0.00
  IN1127               0.00   1326.56    128.93      0.00
  VN1129               0.00   1159.01     52.00      0.00
  VN1130               0.00   1159.82     52.35      0.00
  VN1131               0.00   1161.40     55.63      0.00
  VN1132               0.00   1159.01     48.53      0.00
  VN1133               0.00   1159.68     49.69      0.00
  VN1134               0.00   1159.68     49.69      0.00
  VN1135               0.00   1160.11     50.74      0.00
  VN1136               0.00   1160.11     50.74      0.00
  VN1137               0.00   1161.11     54.21      0.00
  VN1138               0.00   1161.11     54.21      0.00
  VN1139               0.00   1161.14     52.92      0.00
  VN1140               0.00   1161.14     52.92      0.00
  IN1142               0.00   1161.25     48.21      0.00
  IN1143               0.00   1161.25     49.51      0.00
  VN1144               0.00   1161.25     50.37      0.00
  VN1145               0.00   1161.25     50.37      0.00
  IN1146               0.00   1161.25     50.37      0.00
  IN1147               0.00   1161.25     51.67      0.00
  IN1148               0.00   1161.25     52.54      0.00
  IN1149               0.00   1161.25     52.54      0.00
  VN1150               0.00   1161.25     53.84      0.00
  IN1151               0.00   1161.13     51.19      0.00
  VN1152               0.00   1161.13     49.89      0.00
  VN1153               0.00   1161.13     49.89      0.00
  IN1154               0.00   1161.13     49.89      0.00
  IN1155               0.00   1161.13     49.45      0.00
  IN1156               0.00   1160.53     45.73      0.00
  VN1157               0.00   1160.53     45.73      0.00
  VN1158               0.00   1160.53     45.73      0.00
  IN1159               0.00   1160.53     46.16      0.00
  VN1160               0.00   1160.53     46.59      0.00
  VN1161               0.00   1160.53     46.59      0.00
  IN1162               0.00   1160.53     47.03      0.00
  IN1163               0.00   1160.53     47.89      0.00
  VN1164               0.00   1160.53     48.33      0.00
  VN1165               0.00   1160.53     48.33      0.00
  IN1166               0.00   1160.53     50.93      0.00
  VN1167               0.00   1160.53     51.79      0.00
  VN1168               0.00   1160.53     51.79      0.00
  VN1170               0.00   1159.63     49.24      0.00
  IN1171               0.00   1159.63     49.24      0.00
  IN1172               0.00   1159.63     48.80      0.00
  IN1173               0.00   1159.63     47.94      0.00
  VN1174               0.00   1159.63     47.94      0.00
  VN1175               0.00   1159.63     47.94      0.00
  IN1176               0.00   1159.63     47.50      0.00
  VN1177               0.00   1159.63     47.07      0.00
  VN1178               0.00   1159.63     47.07      0.00
  IN1179               0.00   1159.63     46.64      0.00
  VN1180               0.00   1159.63     46.20      0.00
  VN1181               0.00   1159.01     47.23      0.00
  VN1182               0.00   1159.01     46.80      0.00
  VN1183               0.00   1159.01     46.80      0.00
  IN1184               0.00   1159.01     46.37      0.00
  VN1185               0.00   1159.01     46.80      0.00
  VN1186               0.00   1159.01     46.80      0.00
  IN1187               0.00   1159.01     46.80      0.00
  IN1188               0.00   1159.01     46.80      0.00
  IN1189               0.00   1159.01     46.80      0.00
  VN1190               0.00   1159.01     47.23      0.00
  VN1191               0.00   1159.01     47.23      0.00
  IN1192               0.00   1159.01     47.23      0.00
  IN1193               0.00   1159.01     47.23      0.00
  IN1194               0.00   1159.01     47.67      0.00
  IN1195               0.00   1159.01     50.27      0.00
  IN1196               0.00   1159.01     50.70      0.00
  VN1197               0.00   1159.01     51.13      0.00
[...]
  IN1519               0.00   1148.78     54.50  27456.66
  HY46                 0.00   1148.18     48.17      0.00
  HY47                 0.00   1148.18     47.31      0.00
  HY48                 0.00   1148.18     42.97      0.00
  HY49                 0.00   1148.23     47.76      0.00
  HY50                 0.00   1148.23     51.23      0.00
  HY51                 0.00   1147.13     51.18      0.00
  HY52                 0.00   1147.13     49.88      0.00
  HY53                 0.00   1145.72     45.81      0.00
  HY54                 0.00   1147.65     47.08      0.00
  HY55                 0.00   1148.21     53.82      0.00
  HY56                 0.00   1147.92     52.83      0.00
  HY57                 0.00   1147.85     48.90      0.00
  HY58                 0.00   1148.18     40.38      0.00
  HY59                 0.00   1148.15     40.80      0.00
  HY60                 0.00   1148.18     43.84      0.00
  HY61                 0.00   1148.15     47.30      0.00
  HY62                 0.00   1148.23     47.33      0.00
  HY63                 0.00   1147.85     51.93      0.00
  HY64                 0.00   1149.89     48.91      0.00
  HY65                 0.00   1148.20     50.35      0.00
  HY66                 0.00   1148.65     51.41      0.00
  HY67                 0.00   1147.83     44.99      0.00
  IN1520               0.00   1147.66     45.57  16358.96
  HY68                 0.00   1147.66     45.57      0.00
  IN1521               0.00   1148.76     55.36  31475.07
  HY69                 0.00   1148.76     55.36      0.00
  IN1522               0.00   1075.00     17.33      0.00
  TN1523               2.40   1147.96     41.15      0.00
  TN1525               2.40   1147.49     53.08     41.76
  TN1524               2.16   1146.91     51.96      0.00
  TN1526               1.33   1148.26     49.94      0.00
  TN1527               0.11   1148.05     51.15      0.00
  TN1528               0.00   1147.70     51.00      0.00
  TN1529               0.00   1147.32     50.40      0.00
  IN1530               0.00   1148.05     51.15      0.00
  IN1531               0.00   1147.70     51.00      0.00
  IN1532               0.00   1147.32     50.84      0.00
  TN1533               8.66   1148.79     53.64  22682.02
  IN1534               0.00   1149.11     51.61     24.39
  IN1535               0.00   1149.00     51.56     10.97
  IN1536               0.00   1149.00     51.13    193.03
  IN1537               0.00   1148.97     49.38    215.01
  IN1538               0.00   1148.93     48.93     54.07
  IN1539               0.00   1148.93     48.50  52938.20
  IN1540               0.00   1148.93     48.93  91639.59
  IN1541               0.00   1148.91     49.79 168350.08
  IN1542               0.00   1148.89     50.22 168470.03
  IN1543               0.00   1148.89     51.95      0.00
  IN1544               0.00   1148.88     54.11      0.00
  IN1545               0.00   1148.86     55.84      0.00
  IN1546               0.00   1148.85     57.56      0.00
  IN1547               0.00   1148.85     58.00      0.00
  IN1548               0.00   1148.85     58.00     44.29
  IN1549               0.00   1148.56     55.70  20590.86
  IN1550               0.00   1148.80     56.24   1487.45
  IN1551               0.00   1148.66     54.88  22028.89
  IN1552               0.00   1148.41     55.64  19165.52
  TN1553               0.11   1148.99     51.12    218.05
  TN1554               0.23   1148.97     50.69    221.83
  TN1555               0.34   1148.96     51.54    192.54
  TN1556               0.11   1148.99     50.69    218.05
  TN1557               0.00   1148.97     49.38      0.00
  TN1558               0.00   1148.97     48.95      0.00
  TN1559               0.00   1148.97     49.82      0.00
  TN1560               0.00   1148.97     49.38      0.00
  TN1561               0.00   1148.93     48.50      0.00
  TN1562               0.00   1148.93     48.50      0.00
  TN1563               0.11   1148.92     48.93     70.52
  TN1564               0.11   1148.92     48.49     73.72
  TN1565               0.34   1148.90     48.48  53091.10
  TN1566               0.11   1148.92     48.50  48068.43
  TN1567               0.11   1148.92     48.93  48068.43
  TN1568               0.00   1148.93     48.50      0.00
  TN1569               0.11   1148.92     48.93 167723.83
  TN1570               0.00   1148.93     48.93      0.00
  TN1571               0.11   1148.92     48.50 167723.83
  TN1572               0.23   1148.90     49.35 147644.98
  TN1573               0.23   1148.88     49.34 168418.91
  TN1574               0.11   1148.90     49.35 168470.03
  TN1575               0.00   1148.91     49.36      0.00
  TN1576               0.23   1148.89     49.78 168415.02
  TN1577               0.11   1148.88     50.21 168470.09
  TN1578               0.00   1148.89     50.65      0.00
  TN1579               0.00   1148.89     50.65      0.00
  TN1580               0.00   1148.89     51.08      0.00
  TN1581               0.23   1148.87     51.07      0.00
  TN1582               0.23   1148.87     52.80      0.00
  TN1583               0.23   1148.87     51.94      0.00
  TN1584               0.00   1148.89     52.38      0.00
  TN1585               0.00   1148.88     53.68      0.00
  TN1586               0.11   1148.86     54.10      0.00
  TN1587               0.23   1148.86     54.10      0.00
  TN1588               0.23   1148.84     54.96      0.00
  TN1589               0.23   1148.83     54.96      0.00
  TN1590               0.00   1148.86     55.84      0.00
  TN1591               0.23   1148.84     55.83      0.00
  TN1592               0.23   1148.83     57.12      0.00
  TN1593               0.34   1148.81     56.68      0.00
  TN1594               0.11   1148.84     57.56      0.00
  TN1595               0.11   1148.84     57.56      0.00
  TN1596               0.00   1148.85     57.56      0.00
  TN1597               0.00   1148.85     57.56      0.00
  TN1598               0.23   1148.82     57.98      0.00
  TN1599               0.23   1148.83     57.99      0.00
  TN1600               0.11   1148.83     57.99      0.00
  IN1602               0.00   1149.14     49.02     72.65
  IN1603               0.00   1149.14     48.59    228.24
  IN1604               0.00   1149.04     47.68    225.96
  IN1605               0.00   1148.98     48.09    186.70
  IN1601               0.00   1149.19     50.78     43.31
  IN1606               0.00   1148.95     48.08  13544.36
  IN1607               0.00   1148.94     48.07   4916.18
  IN1608               0.00   1148.92     48.50  97571.23
  IN1609               0.00   1148.90     49.35  24640.45
  IN1610               0.00   1148.88     50.21    785.28
  IN1611               0.00   1148.86     53.23      2.72
  IN1612               0.00   1148.86     54.10  33408.69
  IN1613               0.00   1148.84     55.39   2952.13
  IN1614               0.00   1148.82     55.82   1125.94
  IN1615               0.00   1148.81     56.24   2443.23
  TN1616               0.11   1149.14     50.32      0.00
  TN1617               0.00   1149.14     49.02      0.00
  TN1618               0.00   1149.14     48.59      0.00
  TN1619               0.11   1149.14     48.59      0.00
  TN1620               0.00   1149.04     48.11      0.00
  TN1621               0.34   1149.04     48.11      0.00
  TN1622               0.11   1148.98     48.09      0.00
  TN1623               0.11   1148.94     48.07      0.00
  TN1624               0.00   1148.94     48.07      0.00
  TN1625               0.00   1148.92     48.50      0.00
  TN1626               0.00   1148.92     48.50      0.00
  TN1627               0.00   1148.90     48.92      0.00
  TN1628               0.23   1148.90     49.35      0.00
  TN1629               0.00   1148.88     49.78      0.00
  TN1630               0.23   1148.88     50.21      0.00
  TN1631               0.00   1148.86     52.80      0.00
  TN1632               0.11   1148.86     53.67      0.00
  TN1633               0.00   1148.86     54.10      0.00
  TN1634               0.34   1148.86     54.53      0.00
  TN1635               0.11   1148.84     55.39      0.00
  TN1636               0.00   1148.84     55.83      0.00
  TN1637               0.00   1148.82     56.25      0.00
  TN1638               0.00   1148.82     56.25      0.00
  TN1639               0.00   1148.81     56.24      0.00
  IN1640               0.00   1148.95     47.21   2896.88
  IN1641               0.00   1148.91     47.19   4486.05
  IN1642               0.00   1148.84     48.03  10954.34
  IN1643               0.00   1148.84     49.76   2647.19
  IN1644               0.00   1148.79     51.04  15574.65
  IN1645               0.00   1148.78     52.33 133655.06
  IN1646               0.00   1148.77     53.63 145860.16
  IN1647               0.00   1148.71     54.90 140454.20
  IN1648               0.00   1148.70     54.47  31591.64
  TN1649               0.00   1148.91     47.19      0.00
  TN1650               0.11   1148.91     47.62      0.00
  TN1651               0.11   1148.84     47.60      0.00
  TN1652               0.00   1148.84     48.03      0.00
  TN1653               0.11   1148.84     48.46      0.00
  TN1654               0.23   1148.84     49.76      0.00
  TN1655               0.11   1148.79     50.60      0.00
  TN1656               0.11   1148.79     51.04      0.00
  TN1657               0.11   1148.78     52.33      0.00
  TN1658               0.11   1148.78     52.77      0.00
  TN1659               0.11   1148.77     53.63      0.00
  TN1660               0.11   1148.77     54.06      0.00
  TN1661               0.11   1148.71     54.47      0.00
  TN1662               0.00   1148.71     54.90      0.00
  TN1663               0.00   1148.70     55.33      0.00
  TN1664               0.11   1148.70     55.33      0.00
  IN1665               0.00   1148.26     46.48   1608.10
  IN1666               0.00   1147.38     46.10   6923.09
  IN1667               0.00   1148.07     54.63  24918.16
  IN1668               0.00   1147.81     44.12      0.00
  IN1669               0.00   1147.88     51.94  28336.30
  IN1670               0.00   1148.26     46.48  74427.61
  IN1671               0.00   1148.28     46.92  78678.08
  IN1672               0.00   1148.29     47.79  45514.41
  IN1673               0.00   1148.31     48.66  47140.21
  IN1674               0.00   1148.33     49.97  63971.64
  IN1675               0.00   1148.35     53.02  67906.66
  IN1676               0.00   1148.37     54.32  54740.52
  IN1677               0.00   1148.39     54.76  39612.02
  IN1678               0.00   1148.39     55.20  20650.62
  IN1679               0.00   1148.40     55.63  19164.65
  IN1680               0.00   1147.43     46.12   7275.63
  IN1681               0.00   1147.52     46.59   9345.00
  IN1682               0.00   1147.52     47.02  47930.57
  IN1683               0.00   1147.61     48.36  42497.58
  IN1684               0.00   1147.71     50.57  35400.42
  IN1685               0.00   1147.80     52.34  31414.05
  IN1686               0.00   1147.91     53.69  27237.08
  IN1687               0.00   1148.02     54.17  24846.26
  IN1688               0.00   1147.68     45.79  11164.56
  IN1689               0.00   1147.68     46.22      0.00
  IN1690               0.00   1147.72     47.54      0.00
  IN1691               0.00   1147.72     48.84  43663.55
  IN1692               0.00   1147.77     50.16  53138.04
  IN1693               0.00   1147.82     51.48  70606.34
  IN1694               0.00   1147.87     52.37  63614.68
  IN1695               0.00   1147.92     52.83  47451.02
  IN1696               0.00   1147.82     44.55      0.00
  IN1697               0.00   1147.82     44.98      0.00
  IN1698               0.00   1147.83     46.72      0.00
  IN1699               0.00   1147.83     48.02      0.00
  IN1700               0.00   1147.83     49.76  51763.14
  IN1701               0.00   1147.85     50.63  71052.52
  IN1702               0.00   1147.86     51.93  43173.70
  IN1703               0.00   1147.87     51.94  31361.02
  TN1704               0.00   1148.26     46.48      0.00
  TN1705               0.00   1148.26     46.48      0.00
  TN1706               0.11   1148.25     46.47  74427.61
  TN1707               0.00   1148.26     46.48      0.00
  TN1708               0.00   1148.28     46.92      0.00
  TN1709               0.11   1148.27     46.91  79468.99
  TN1710               0.11   1148.27     46.91  85905.24
  TN1711               0.00   1148.28     46.92      0.00
  TN1712               0.23   1148.26     47.34  45514.41
  TN1713               0.23   1148.27     47.78  44288.48
  TN1715               0.00   1148.29     47.79      0.00
  TN1714               0.34   1148.27     47.78  44967.37
  TN1716               0.11   1148.30     48.23  46636.12
  TN1717               0.11   1148.30     49.09  46201.01
  TN1719               0.11   1148.30     49.09  46435.46
  TN1718               0.11   1148.30     48.66  47140.21
  TN1720               0.23   1148.31     49.53  69883.23
  TN1721               0.00   1148.33     50.41      0.00
  TN1722               0.11   1148.32     49.54  63971.64
  TN1723               0.34   1148.29     52.56  67472.73
  TN1726               0.11   1148.35     53.01  67906.66
  TN1724               0.00   1148.35     51.28      0.00
  TN1725               0.23   1148.33     53.44  62438.99
  TN1727               0.34   1148.34     53.88  48915.96
  TN1728               0.00   1148.37     53.89      0.00
  TN1729               0.11   1148.36     54.32  62409.11
  TN1732               0.11   1148.38     54.76  39612.02
  TN1730               0.23   1148.37     54.76  35832.11
  TN1731               0.11   1148.38     55.19  45539.21
  TN1734               0.11   1148.38     55.20  25934.67
  TN1735               0.23   1148.37     55.62  20650.62
  TN1733               0.23   1148.37     55.19  20650.62
  TN1738               0.23   1148.38     55.63  19164.65
  TN1736               0.11   1148.38     55.63  17602.23
  TN1737               0.23   1148.37     55.62  18166.98
  TN1739               0.00   1147.43     46.12      0.00
  TN1740               0.11   1147.42     46.11   7830.46
  TN1741               0.00   1147.43     46.12      0.00
  TN1742               0.00   1147.43     46.12      0.00
  TN1743               0.23   1147.50     46.58   9625.54
  TN1744               0.00   1147.52     47.02      0.00
  TN1745               0.00   1147.52     46.59      0.00
  TN1746               0.34   1147.49     46.58   9625.54
  TN1747               0.34   1147.49     47.01  46305.23
  TN1748               0.11   1147.51     47.45  48770.98
  TN1749               0.00   1147.52     47.02      0.00
  TN1750               0.11   1147.51     47.45  47930.57
  TN1751               0.00   1147.61     47.93      0.00
  TN1752               0.00   1147.61     48.36      0.00
  TN1753               0.00   1147.61     48.36      0.00
  TN1754               0.11   1147.60     48.79  46046.40
  TN1755               0.23   1147.69     50.56  32509.90
  TN1756               0.00   1147.71     51.00      0.00
  TN1757               0.23   1147.69     49.70  33824.35
  TN1758               0.45   1147.68     50.99  33875.07
  TN1759               0.00   1147.80     51.91      0.00
  TN1760               0.34   1147.79     52.34  29720.55
  TN1761               0.00   1147.80     52.34      0.00
  TN1762               0.11   1147.80     52.77  31414.05
  TN1763               0.00   1147.91     53.26      0.00
  TN1764               0.23   1147.89     54.12  24869.61
  TN1765               0.23   1147.89     53.68  25701.32
  TN1766               0.00   1147.91     54.12      0.00
  TN1767               0.00   1148.02     54.17      0.00
  TN1768               0.23   1147.99     55.03  24846.26
  TN1769               0.11   1148.01     54.60  24846.26
  TN1770               0.34   1147.99     55.02  24887.61
  TN1771               0.11   1147.68     45.79      0.00
  TN1772               0.11   1147.68     45.79      0.00
  TN1773               0.11   1147.68     45.79      0.00
  TN1774               0.11   1147.68     46.22      0.00
  TN1775               0.34   1147.68     45.79      0.00
  TN1776               0.23   1147.68     46.22      0.00
  TN1777               0.11   1147.68     46.22      0.00
  TN1778               0.11   1147.68     46.22      0.00
  TN1779               0.00   1147.72     47.11      0.00
  TN1780               0.11   1147.72     47.54      0.00
  TN1781               0.11   1147.72     46.68      0.00
  TN1782               0.00   1147.72     47.54      0.00
  TN1783               0.11   1147.72     48.41      0.00
  TN1784               0.23   1147.72     48.84      0.00
  TN1785               0.11   1147.72     48.41      0.00
  TN1786               0.00   1147.72     48.84      0.00
  TN1789               0.11   1147.77     49.73      0.00
  TN1790               0.00   1147.77     50.60      0.00
  TN1787               0.11   1147.77     49.73      0.00
  TN1788               0.34   1147.77     50.16      0.00
  TN1791               0.11   1147.82     51.05      0.00
  TN1792               0.00   1147.82     51.48      0.00
  TN1793               0.34   1147.82     51.48      0.00
  TN1794               0.23   1147.82     51.48      0.00
  TN1795               0.23   1147.87     51.94      0.00
  TN1796               0.11   1147.87     52.37      0.00
  TN1797               0.00   1147.87     52.37      0.00
  TN1798               0.11   1147.87     52.81      0.00
  TN1799               0.23   1147.92     52.83      0.00
  TN1800               0.34   1147.92     52.83      0.00
  TN1801               0.11   1147.92     53.26      0.00
  TN1802               0.34   1147.92     53.26      0.00
  TN1805               0.23   1147.82     44.55      0.00
  TN1803               0.11   1147.82     44.55      0.00
  TN1804               0.11   1147.82     44.55      0.00
  TN1806               0.00   1147.82     44.55      0.00
  TN1807               0.11   1147.82     44.55      0.00
  TN1808               0.00   1147.82     44.98      0.00
  TN1809               0.23   1147.82     44.98      0.00
  TN1810               0.11   1147.82     45.85      0.00
  TN1811               0.11   1147.83     46.29      0.00
  TN1812               0.11   1147.83     46.29      0.00
  TN1813               0.34   1147.83     46.29      0.00
  TN1814               0.00   1147.83     47.15      0.00
  TN1815               0.00   1147.83     47.59      0.00
  TN1816               0.11   1147.83     48.46      0.00
  TN1817               0.11   1147.83     47.59      0.00
  TN1818               0.11   1147.83     48.46      0.00
  TN1819               0.34   1147.83     49.32      0.00
  TN1820               0.11   1147.83     49.76      0.00
  TN1821               0.11   1147.83     49.32      0.00
  TN1822               0.11   1147.83     49.76      0.00
  TN1823               0.00   1147.85     50.63      0.00
  TN1824               0.00   1147.85     51.06      0.00
  TN1825               0.00   1147.85     50.63      0.00
  TN1826               0.00   1147.85     51.06      0.00
  TN1827               0.00   1147.86     51.50      0.00
  TN1828               0.23   1147.86     51.93      0.00
  TN1829               0.11   1147.86     51.50      0.00
  TN1830               0.00   1147.86     51.93      0.00
  TN1831               0.00   1147.87     51.94      0.00
  TN1832               0.34   1147.87     51.94      0.00
  TN1833               0.11   1147.87     51.94      0.00
  TN1834               0.23   1147.87     51.94      0.00
  Aquifer              0.00    930.00      0.00      0.00  Reservoir
  SurfaceResrvr        0.00   1030.00      0.00      0.00  Reservoir
  Tank              -808.02   1150.01     47.67    227.72  Tank
   
  Analysis ended Fri Apr 22 08:11:20 2022
