  Page 1                                    Tue Sep 27 16:09:38 2022

  ******************************************************************
  *                           E P A N E T                          *
  *                   Hydraulic and Water Quality                  *
  *                   Analysis for Pipe Networks                   *
  *                         Version 2.2                            *
  ******************************************************************
  
  Pipe	Map	Name:	Pipenet6.shp
  Node	Map	Name:	Epanmap.shp
  Mon	Jul	18	13:25:42	2005
   
      Input Data File ................... temp.inp
      Number of Junctions................ 1574
      Number of Reservoirs............... 2
      Number of Tanks ................... 1
      Number of Pipes ................... 1415
      Number of Pumps ................... 8
      Number of Valves .................. 196
      Headloss Formula .................. Darcy-Weisbach
      Nodal Demand Model ................ DDA
      Hydraulic Timestep ................ 1.00 hrs
      Hydraulic Accuracy ................ 0.001000
      Status Check Frequency ............ 2
      Maximum Trials Checked ............ 10
      Damping Limit Threshold ........... 0.000000
      Maximum Trials .................... 40
      Maximum Trials .................... 40
      Water Quality Time Step ........... 5.00 min
      Water Quality Tolerance ........... 0.01 hrs
      Specific Gravity .................. 1.00
      Relative Kinematic Viscosity ...... 1.00
      Relative Chemical Diffusivity ..... 1.00
      Demand Multiplier ................. 1.00
      Total Duration .................... 4.00 hrs
      Reporting Criteria:
         All Nodes
         No Links
   
  Analysis begun Tue Sep 27 16:09:38 2022

   
  Hydraulic Status:
  -----------------------------------------------------------------------
     0:00:00: Balanced after 37 trials
     0:00:00: Reservoir Aquifer is emptying
     0:00:00: Reservoir SurfaceResrvr is emptying
     0:00:00: Tank Tank is filling at 115.00 ft
   
     0:06:00: Pump HSP#1 changed by rule 7
     0:06:00: Balanced after 6 trials
     0:06:00: Reservoir Aquifer is closed
     0:06:00: Reservoir SurfaceResrvr is closed
     0:06:00: Tank Tank is emptying at 115.34 ft
     0:06:00: CV 1 changed from open to closed
     0:06:00: Pump HSP#1 changed from open to closed
   
  WARNING: Pump WellPump#1 closed because cannot deliver head at 0:06:00 hrs.
  WARNING: Pump WellPump#2 closed because cannot deliver head at 0:06:00 hrs.
  WARNING: Pump WellPump#3 closed because cannot deliver head at 0:06:00 hrs.
  WARNING: Pump WellPump#4 closed because cannot deliver head at 0:06:00 hrs.
   
     1:00:00: Balanced after 1 trials
   
  WARNING: Pump WellPump#1 closed because cannot deliver head at 1:00:00 hrs.
  WARNING: Pump WellPump#2 closed because cannot deliver head at 1:00:00 hrs.
  WARNING: Pump WellPump#3 closed because cannot deliver head at 1:00:00 hrs.
  WARNING: Pump WellPump#4 closed because cannot deliver head at 1:00:00 hrs.
  WARNING: Pump ResvrPump closed because cannot deliver head at 1:00:00 hrs.
   
     2:00:00: Balanced after 2 trials
   
  WARNING: Pump WellPump#1 closed because cannot deliver head at 2:00:00 hrs.
  WARNING: Pump WellPump#2 closed because cannot deliver head at 2:00:00 hrs.
  WARNING: Pump WellPump#3 closed because cannot deliver head at 2:00:00 hrs.
  WARNING: Pump WellPump#4 closed because cannot deliver head at 2:00:00 hrs.
   
     3:00:00: Pump HSP#3 changed by rule 6
     3:00:00: Balanced after 10 trials
     3:00:00: Reservoir Aquifer is emptying
     3:00:00: Reservoir SurfaceResrvr is emptying
     3:00:00: Tank Tank is filling at 109.98 ft
     3:00:00: CV 1 changed from closed to open
     3:00:00: Pump HSP#3 changed from closed to open
   
     3:06:00: Pump HSP#3 changed by rule 7
     3:06:00: Balanced after 5 trials
     3:06:00: Reservoir Aquifer is closed
     3:06:00: Reservoir SurfaceResrvr is closed
     3:06:00: Tank Tank is emptying at 110.29 ft
     3:06:00: CV 1 changed from open to closed
     3:06:00: Pump HSP#3 changed from open to closed
   
  WARNING: Pump WellPump#1 closed because cannot deliver head at 3:06:00 hrs.
  WARNING: Pump WellPump#2 closed because cannot deliver head at 3:06:00 hrs.
  WARNING: Pump WellPump#3 closed because cannot deliver head at 3:06:00 hrs.
  WARNING: Pump WellPump#4 closed because cannot deliver head at 3:06:00 hrs.
  WARNING: Pump ResvrPump closed because cannot deliver head at 3:06:00 hrs.
   
     3:18:00: Pump HSP#3 changed by rule 6
     3:18:00: Balanced after 10 trials
     3:18:00: Reservoir Aquifer is emptying
     3:18:00: Reservoir SurfaceResrvr is emptying
     3:18:00: Tank Tank is filling at 109.86 ft
     3:18:00: CV 1 changed from closed to open
     3:18:00: Pump HSP#3 changed from closed to open
   
     3:24:00: Pump HSP#3 changed by rule 7
     3:24:00: Balanced after 5 trials
     3:24:00: Reservoir Aquifer is closed
     3:24:00: Reservoir SurfaceResrvr is closed
     3:24:00: Tank Tank is emptying at 110.17 ft
     3:24:00: CV 1 changed from open to closed
     3:24:00: Pump HSP#3 changed from open to closed
   
  WARNING: Pump WellPump#1 closed because cannot deliver head at 3:24:00 hrs.
  WARNING: Pump WellPump#2 closed because cannot deliver head at 3:24:00 hrs.
  WARNING: Pump WellPump#3 closed because cannot deliver head at 3:24:00 hrs.
  WARNING: Pump WellPump#4 closed because cannot deliver head at 3:24:00 hrs.
  WARNING: Pump ResvrPump closed because cannot deliver head at 3:24:00 hrs.
   
     3:30:00: Pump HSP#3 changed by rule 6
     3:30:00: Balanced after 10 trials
     3:30:00: Reservoir Aquifer is emptying
     3:30:00: Reservoir SurfaceResrvr is emptying
     3:30:00: Tank Tank is filling at 109.96 ft
     3:30:00: CV 1 changed from closed to open
     3:30:00: Pump HSP#3 changed from closed to open
   
     3:36:00: Pump HSP#3 changed by rule 7
     3:36:00: Balanced after 5 trials
     3:36:00: Reservoir Aquifer is closed
     3:36:00: Reservoir SurfaceResrvr is closed
     3:36:00: Tank Tank is emptying at 110.27 ft
     3:36:00: CV 1 changed from open to closed
     3:36:00: Pump HSP#3 changed from open to closed
   
  WARNING: Pump WellPump#1 closed because cannot deliver head at 3:36:00 hrs.
  WARNING: Pump WellPump#2 closed because cannot deliver head at 3:36:00 hrs.
  WARNING: Pump WellPump#3 closed because cannot deliver head at 3:36:00 hrs.
  WARNING: Pump WellPump#4 closed because cannot deliver head at 3:36:00 hrs.
  WARNING: Pump ResvrPump closed because cannot deliver head at 3:36:00 hrs.
   
     3:48:00: Pump HSP#3 changed by rule 6
     3:48:00: Balanced after 10 trials
     3:48:00: Reservoir Aquifer is emptying
     3:48:00: Reservoir SurfaceResrvr is emptying
     3:48:00: Tank Tank is filling at 109.84 ft
     3:48:00: CV 1 changed from closed to open
     3:48:00: Pump HSP#3 changed from closed to open
   
     3:54:00: Pump HSP#3 changed by rule 7
     3:54:00: Balanced after 5 trials
     3:54:00: Reservoir Aquifer is closed
     3:54:00: Reservoir SurfaceResrvr is closed
     3:54:00: Tank Tank is emptying at 110.15 ft
     3:54:00: CV 1 changed from open to closed
     3:54:00: Pump HSP#3 changed from open to closed
   
  WARNING: Pump WellPump#1 closed because cannot deliver head at 3:54:00 hrs.
  WARNING: Pump WellPump#2 closed because cannot deliver head at 3:54:00 hrs.
  WARNING: Pump WellPump#3 closed because cannot deliver head at 3:54:00 hrs.
  WARNING: Pump WellPump#4 closed because cannot deliver head at 3:54:00 hrs.
  WARNING: Pump ResvrPump closed because cannot deliver head at 3:54:00 hrs.
   
     4:00:00: Pump HSP#3 changed by rule 6
     4:00:00: Balanced after 10 trials
     4:00:00: Reservoir Aquifer is emptying
     4:00:00: Reservoir SurfaceResrvr is emptying
     4:00:00: Tank Tank is filling at 109.93 ft
     4:00:00: CV 1 changed from closed to open
     4:00:00: Pump HSP#3 changed from closed to open
   
  Water Quality Mass Balance (hrs)
  ================================
  Initial Mass:      0.00000e+000
  Mass Inflow:       0.00000e+000
  Mass Outflow:      2.99580e+004
  Mass Reacted:      -9.91156e+005
  Final Mass:        9.61198e+005
  Mass Ratio:         1.00000
  ================================

   
  Node Results at 0:00:00 hrs:
  --------------------------------------------------------
                     Demand      Head  Pressure       AGE
  Node                  gpm        ft       psi       hrs
  --------------------------------------------------------
  IN0                  0.00   1155.68     51.86      0.00
  TN1                  3.51   1155.68     51.86      0.00
  IN2                  0.00   1155.72     51.01      0.00
  TN3                  4.74   1155.72     51.44      0.00
  IN4                  0.00   1155.81     51.05      0.00
  TN5                  0.53   1155.81     51.05      0.00
  IN6                  0.00   1155.82     51.05      0.00
  TN7                  5.85   1155.81     51.05      0.00
  IN8                  0.00   1155.74     51.02      0.00
  TN9                  0.53   1155.74     51.02      0.00
  IN10                 0.00   1155.67     51.85      0.00
  TN11                 8.75   1155.66     51.85      0.00
  TN13                 0.42   1155.86     51.07      0.00
  TN15                 5.58   1155.85     51.07      0.00
  IN16                 0.00   1155.89     51.52      0.00
  TN17                 3.23   1155.89     51.51      0.00
  TN19                 6.04   1155.89     51.95      0.00
  TN21                 3.69   1155.91     54.99      0.00
  TN23                 6.79   1155.90     54.99      0.00
  TN25                 0.53   1155.96     57.18      0.00
  TN27                 9.48   1156.01     58.07      0.00
  TN29                 4.11   1156.03     58.94      0.00
  TN31                 0.21   1155.86     54.10      0.00
  TN33                 0.21   1155.85     52.37      0.00
  IN34                 0.00   1155.87     51.94      0.00
  TN35                 0.14   1155.85     51.93      0.00
  TN37                 0.14   1155.85     51.50      0.00
  TN39                 0.00   1155.86     51.50      0.00
  TN41                 0.00   1155.86     51.50      0.00
  TN43                 0.41   1155.83     51.49      0.00
  IN44                 0.00   1155.86     51.50      0.00
  TN45                 0.14   1155.85     51.50      0.00
  TN47                 0.28   1155.86     51.50      0.00
  TN49                 0.07   1155.88     51.94      0.00
  TN51                 0.14   1155.89     51.95      0.00
  IN52                 0.00   1155.91     52.39      0.00
  TN53                 0.21   1155.89     52.38      0.00
  TN55                 0.21   1155.92     53.26      0.00
  TN57                 0.07   1155.93     53.70      0.00
  IN58                 0.00   1155.96     55.88      0.00
  TN59                 0.21   1155.94     54.14      0.00
  TN61                 0.07   1155.95     55.87      0.00
  TN63                 0.34   1155.84     51.06      0.00
  IN64                 0.00   1155.87     51.51      0.00
  TN65                 0.07   1155.87     51.51      0.00
  TN67                 0.14   1155.87     51.51      0.00
  IN68                 0.00   1155.90     51.95      0.00
  TN69                 0.00   1155.90     51.95      0.00
  TN71                 0.07   1155.90     51.95      0.00
  IN72                 0.00   1155.92     52.39      0.00
  TN73                 0.34   1155.90     52.39      0.00
  IN74                 0.00   1155.93     53.27      0.00
  TN75                 0.07   1155.93     53.26      0.00
  TN77                 0.21   1155.94     54.13      0.00
  TN79                 0.14   1155.94     55.87      0.00
  IN80                 0.00   1155.99     57.19      0.00
  TN81                 0.14   1155.97     56.75      0.00
  TN83                 0.14   1155.97     57.62      0.00
  TN85                 0.28   1155.96     56.74      0.00
  TN87                 0.21   1155.97     57.61      0.00
  TN89                 0.21   1156.00     58.06      0.00
  IN90                 0.00   1156.02     58.94      0.00
  TN91                 0.07   1156.01     58.93      0.00
  TN93                 0.21   1156.00     58.06      0.00
  TN95                 0.14   1156.01     59.36      0.00
  TN97                 0.07   1156.05     59.82      0.00
  IN98                 0.00   1156.05     59.82      0.00
  TN99                 0.07   1156.05     60.25      0.00
  TN101                0.14   1156.04     59.81      0.00
  TN103                0.14   1156.04     60.25      0.00
  IN104                0.00   1156.09     60.70      0.00
  TN105                0.14   1156.08     60.70      0.00
  TN107                0.07   1156.09     60.70      0.00
  TN109                0.14   1156.08     61.13      0.00
  IN110                0.00   1155.88     53.68      0.00
  TN111                0.07   1155.87     52.37      0.00
  TN113                0.14   1155.87     53.67      0.00
  TN115                0.21   1155.85     51.50      0.00
  TN117                0.14   1155.85     51.93      0.00
  IN118                0.00   1155.86     51.07      0.00
  TN119                0.34   1155.84     51.06      0.00
  IN120                0.00   1155.87     51.50      0.00
  TN121                0.07   1155.86     51.50      0.00
  IN122                0.00   1155.86     51.07      0.00
  TN123                0.27   1155.84     51.06      0.00
  TN125                0.27   1156.09     57.67      0.00
  TN127                0.14   1156.10     57.24      0.00
  TN129                0.21   1156.10     56.81      0.00
  TN131                0.21   1156.10     57.24      0.00
  TN133                0.07   1156.11     56.81      0.00
  TN135                0.14   1156.06     55.92      0.00
  TN137                0.27   1156.05     55.92      0.00
  TN139                0.27   1156.05     55.48      0.00
  IN140                0.00   1156.05     54.62      0.00
  TN141                0.07   1156.04     55.05      0.00
  TN143                0.07   1156.04     54.61      0.00
  TN145                0.14   1156.03     52.44      0.00
  TN147                0.14   1155.98     51.99      0.00
  TN149                0.34   1155.95     54.14      0.00
  IN150                0.00   1156.00     52.00      0.00
  TN151                0.34   1155.96     51.55      0.00
  IN152                0.00   1155.95     51.11      0.00
  TN153                0.41   1155.90     51.09      0.00
  TN155                0.28   1155.92     51.09      0.00
  TN157                0.14   1155.93     50.67      0.00
  TN159                0.07   1155.99     51.56      0.00
  TN161                0.14   1155.93     50.67      0.00
  IN162                0.00   1155.94     50.23      0.00
  TN163                0.28   1155.90     50.22      0.00
  IN164                0.00   1155.95     50.67      0.00
  TN165                0.34   1155.93     50.66      0.00
  TN166                0.14   1155.92     50.23      0.00
  TN167                0.21   1155.92     50.23      0.00
  TN169                0.34   1155.68     50.12      0.00
  TN170                0.34   1155.68     50.12      0.00
  TN171                0.21   1155.69     50.13      0.00
  IN172                0.00   1155.99     50.26      0.00
  TN173                0.28   1155.96     50.25      0.00
  IN174                0.00   1155.97     50.25      0.00
  TN175                0.07   1155.96     50.25      0.00
  IN176                0.00   1155.85     50.20      0.00
  TN177                0.21   1155.84     50.19      0.00
  IN178                0.00   1155.87     50.21      0.00
  TN179                0.21   1155.86     50.20      0.00
  TN181                0.00   1155.48     50.04      0.00
  TN182                0.14   1155.47     50.03      0.00
  TN183                0.21   1155.46     50.46      0.00
  TN184                0.21   1155.46     50.46      0.00
  TN186                0.07   1155.26     50.38      0.00
  TN187                0.00   1155.27     50.81      0.00
  TN188                0.07   1155.27     50.38      0.00
  TN189                0.34   1155.23     50.80      0.00
  TN191                0.14   1161.75     53.19      0.00
  TN193                0.21   1161.74     53.18      0.00
  TN195                0.14   1160.52     52.22      0.00
  TN197                0.14   1158.83     51.49      0.00
  TN199                0.21   1158.81     51.48      0.00
  TN201                0.14   1158.03     51.14      0.00
  TN203                0.21   1156.88     50.64      0.00
  TN205                0.07   1156.94     50.67      0.00
  TN207                0.21   1156.88     50.64      0.00
  TN209                0.21   1156.88     50.64      0.00
  TN211                0.14   1156.75     50.59      0.00
  TN213                0.14   1156.75     51.02      0.00
  TN215                0.21   1156.75     51.02      0.00
  TN217                0.14   1156.79     50.61      0.00
  TN219                0.21   1156.62     50.97      0.00
  TN221                0.21   1156.62     51.83      0.00
  TN222                0.21   1156.63     51.40      0.00
  TN224                0.28   1156.67     50.98      0.00
  TN226                0.07   1156.58     52.25      0.00
  TN227                0.41   1156.55     52.67      0.00
  TN228                0.14   1156.58     52.68      0.00
  TN230                0.07   1156.63     51.84      0.00
  TN232                0.21   1156.50     53.51      0.00
  TN234                0.34   1156.48     53.94      0.00
  TN236                0.28   1156.49     54.37      0.00
  TN238                0.34   1156.41     55.64      0.00
  TN239                0.07   1156.43     54.78      0.00
  TN240                0.28   1156.41     55.64      0.00
  TN242                0.07   1156.37     56.49      0.00
  TN243                0.07   1156.37     56.92      0.00
  TN244                0.28   1156.36     57.35      0.00
  TN245                0.14   1156.90     50.22      0.00
  IN246                0.00   1156.91     50.22      0.00
  TN247                0.07   1156.90     50.22      0.00
  TN248                0.00   1156.91     50.66      0.00
  TN249                0.21   1156.89     50.65      0.00
  IN250                0.00   1156.81     50.62      0.00
  TN251                0.14   1156.80     50.61      0.00
  TN252                0.21   1156.79     50.61      0.00
  TN253                0.14   1156.80     50.61      0.00
  TN254                0.00   1156.81     50.62      0.00
  IN255                0.00   1156.72     51.01      0.00
  TN256                0.14   1156.70     51.00      0.00
  TN257                0.21   1156.70     51.00      0.00
  TN258                0.21   1156.70     51.43      0.00
  TN259                0.21   1156.70     51.00      0.00
  TN261                0.14   1156.61     53.56      0.00
  TN262                0.14   1156.61     52.26      0.00
  TN263                0.07   1156.62     51.83      0.00
  TN264                0.07   1156.62     52.27      0.00
  IN265                0.00   1156.54     54.40      0.00
  TN266                0.17   1156.52     54.82      0.00
  TN267                0.28   1156.51     54.38      0.00
  TN268                0.34   1156.51     54.82      0.00
  TN269                0.28   1156.51     53.95      0.00
  TN271                0.14   1156.45     56.09      0.00
  TN272                0.41   1156.42     56.51      0.00
  TN273                0.34   1156.43     55.65      0.00
  TN274                0.21   1156.44     55.65      0.00
  TN276                0.28   1156.11     58.98      0.00
  TN278                0.28   1156.12     59.42      0.00
  TN280                0.21   1156.13     59.42      0.00
  TN282                0.07   1156.13     58.99      0.00
  TN284                0.21   1156.12     58.98      0.00
  TN286                0.07   1156.13     58.12      0.00
  TN288                0.28   1156.09     58.10      0.00
  TN290                0.07   1156.31     57.33      0.00
  TN291                0.27   1156.29     59.05      0.00
  TN293                0.07   1156.30     59.06      0.00
  TN294                0.21   1156.29     59.05      0.00
  TN295                0.00   1156.30     59.06      0.00
  TN297                0.28   1156.27     59.05      0.00
  TN299                0.27   1156.27     59.48      0.00
  TN300                0.21   1156.28     59.48      0.00
  TN302                0.21   1156.41     56.94      0.00
  TN303                0.21   1156.41     57.37      0.00
  TN304                0.14   1156.41     56.94      0.00
  TN305                0.00   1156.43     56.51      0.00
  TN307                0.34   1156.38     56.93      0.00
  TN308                0.28   1156.39     57.80      0.00
  TN309                0.14   1156.41     57.81      0.00
  TN310                0.07   1156.41     56.94      0.00
  IN311                0.00   1156.45     56.09      0.00
  TN312                0.41   1156.41     56.07      0.00
  TN313                0.14   1156.44     56.52      0.00
  TN314                0.14   1156.44     56.09      0.00
  TN315                0.27   1156.42     56.08      0.00
  IN316                0.00   1156.46     56.09      0.00
  TN317                0.14   1156.44     56.09      0.00
  TN318                0.14   1156.44     56.52      0.00
  TN319                0.14   1156.44     56.09      0.00
  TN320                0.21   1156.43     55.65      0.00
  IN321                0.00   1156.46     55.23      0.00
  TN322                0.07   1156.46     55.23      0.00
  TN323                0.14   1156.45     55.22      0.00
  TN324                0.07   1156.46     54.79      0.00
  TN325                0.27   1156.44     54.79      0.00
  IN326                0.00   1156.47     53.93      0.00
  TN327                0.28   1156.44     53.92      0.00
  TN328                0.34   1156.43     54.35      0.00
  TN329                0.07   1156.46     53.50      0.00
  TN330                0.07   1156.46     53.50      0.00
  IN331                0.00   1156.47     52.20      0.00
  TN332                0.07   1156.47     52.20      0.00
  TN333                0.00   1156.47     52.63      0.00
  TN334                0.07   1156.47     51.77      0.00
  TN335                0.00   1156.47     51.77      0.00
  IN336                0.00   1156.48     50.90      0.00
  TN337                0.00   1156.48     50.90      0.00
  TN338                0.14   1156.47     51.33      0.00
  TN339                0.27   1156.46     50.90      0.00
  TN340                0.27   1156.46     50.46      0.00
  IN341                0.00   1156.49     50.04      0.00
  TN342                0.07   1156.48     50.04      0.00
  TN343                0.28   1156.45     50.46      0.00
  TN344                0.21   1156.47     49.60      0.00
  TN345                0.28   1156.46     49.16      0.00
  IN346                0.00   1156.49     48.74      0.00
  TN347                0.21   1156.48     49.17      0.00
  TN348                0.07   1156.49     48.74      0.00
  TN349                0.34   1156.46     48.73      0.00
  IN350                0.00   1156.50     48.74      0.00
  TN351                0.21   1156.47     48.73      0.00
  IN352                0.00   1156.49     48.31      0.00
  TN353                0.07   1156.49     48.31      0.00
  TN354                0.07   1156.49     48.31      0.00
  IN355                0.00   1156.49     48.74      0.00
  TN356                0.14   1156.47     48.73      0.00
  TN357                0.07   1156.48     48.74      0.00
  IN358                0.00   1156.48     49.17      0.00
  TN359                0.00   1156.48     49.17      0.00
  TN360                0.00   1156.48     50.47      0.00
  IN361                0.00   1156.48     51.77      0.00
  TN362                0.07   1156.47     51.33      0.00
  TN363                0.14   1156.46     52.20      0.00
  IN364                0.00   1156.47     53.50      0.00
  TN365                0.28   1156.44     53.49      0.00
  TN366                0.07   1156.47     53.93      0.00
  IN367                0.00   1156.47     54.80      0.00
  TN368                0.14   1156.45     54.36      0.00
  TN369                0.07   1156.46     55.23      0.00
  IN370                0.00   1156.46     55.66      0.00
  TN371                0.07   1156.46     55.66      0.00
  TN372                0.34   1156.42     56.08      0.00
  IN373                0.00   1156.46     56.10      0.00
  TN374                0.07   1156.45     56.09      0.00
  TN375                0.34   1156.41     56.07      0.00
  TN379               10.31   1160.97     50.68      0.00
  TN381                6.96   1161.07     51.16      0.00
  TN383                6.96   1161.09     52.47      0.00
  TN385                6.83   1161.13     52.92      0.00
  TN387                5.41   1161.09     50.74      0.00
  TN389                7.48   1161.01     51.13      0.00
  TN391                6.32   1161.08     52.03      0.00
  TN393                6.70   1161.11     52.47      0.00
  TN395               12.03   1157.96     48.95      0.00
  TN397               12.03   1157.95     49.38      0.00
  TN399               12.03   1157.97     49.82      0.00
  TN401               12.03   1158.03     51.14      0.00
  TN403               12.03   1157.94     49.37      0.00
  TN405               12.03   1158.01     49.84      0.00
  TN407               12.03   1158.02     50.27      0.00
  TN409               12.03   1158.14     51.19      0.00
  TN411                0.00   1156.30     54.73      0.00
  IN412                0.00   1156.30     56.03      0.00
  TN413                0.14   1156.29     55.59      0.00
  IN414                0.00   1156.28     54.72      0.00
  TN415                0.14   1156.27     54.28      0.00
  TN416                0.07   1156.28     54.72      0.00
  IN417                0.00   1156.26     53.41      0.00
  TN418                0.14   1156.24     52.10      0.00
  TN420                0.14   1156.24     52.10      0.00
  TN422                0.21   1156.22     52.09      0.00
  IN423                0.00   1156.24     52.53      0.00
  TN424                0.14   1156.22     52.09      0.00
  TN426                0.34   1156.19     52.08      0.00
  IN427                0.00   1156.22     52.53      0.00
  TN428                0.14   1156.21     52.09      0.00
  TN430                0.14   1156.19     53.38      0.00
  IN431                0.00   1156.20     53.38      0.00
  TN432                0.27   1156.18     53.81      0.00
  TN434                0.34   1156.17     54.23      0.00
  IN435                0.00   1156.20     54.25      0.00
  TN436                0.14   1156.19     54.68      0.00
  TN438                0.28   1156.17     55.10      0.00
  TN440                0.00   1156.20     55.55      0.00
  IN441                0.00   1156.18     61.17      0.00
  TN442                0.14   1156.17     61.17      0.00
  TN444                0.28   1156.16     61.60      0.00
  TN446                0.07   1156.18     61.17      0.00
  IN447                0.00   1156.19     61.18      0.00
  TN448                0.28   1156.16     61.17      0.00
  IN449                0.00   1156.19     59.88      0.00
  TN450                0.28   1156.16     60.73      0.00
  TN452                0.14   1156.18     59.87      0.00
  TN454                0.34   1156.16     59.00      0.00
  IN455                0.00   1156.19     58.15      0.00
  TN456                0.21   1156.17     58.14      0.00
  IN457                0.00   1156.19     53.38      0.00
  TN458               55.00   1152.95     53.71      0.00
  TN459               20.00   1151.94     53.27      0.00
  TN460               19.80   1152.07     52.89      0.00
  IN461                0.00   1160.47     57.40      0.00
  TN462                0.00   1160.47     57.83      0.00
  IN463                0.00   1160.46     57.39      0.00
  TN464                0.00   1160.46     57.39      0.00
  TN466                0.21   1159.09     57.67      0.00
  IN467                0.00   1159.21     58.15      0.00
  TN468                0.21   1159.21     58.15      0.00
  TN469                0.14   1159.09     57.23      0.00
  TN470                0.00   1159.21     58.15      0.00
  TN472                0.14   1159.06     58.09      0.00
  TN474                0.21   1158.61     57.90      0.00
  TN476                0.28   1158.18     57.71      0.00
  TN478                0.21   1159.06     58.09      0.00
  TN479                0.21   1158.61     57.90      0.00
  TN480                0.34   1158.18     57.71      0.00
  TN482                0.14   1157.76     57.52      0.00
  TN484                0.21   1157.20     56.85      0.00
  IN485                0.00   1156.83     56.25      0.00
  TN486                0.14   1156.83     56.69      0.00
  TN488                0.00   1156.48     56.10      0.00
  IN489                0.00   1156.15     55.09      0.00
  TN490                0.14   1156.14     55.09      0.00
  TN492                0.00   1157.20     56.85      0.00
  TN494                0.00   1156.48     55.24      0.00
  TN496                0.21   1164.41     59.54      0.00
  TN498                0.14   1168.68     61.82      0.00
  TN499                0.34   1164.41     59.54      0.00
  TN501                0.14   1168.87     61.90      0.00
  IN502                0.00   1165.36     60.82      0.00
  TN503                0.00   1165.36     60.82      0.00
  IN504                0.00   1164.37     60.39      0.00
  TN505                0.21   1164.37     60.39      0.00
  TN507                0.07   1168.62     62.23      0.00
  IN508                0.00   1160.65     58.78      0.00
  TN509                0.00   1160.65     58.78      0.00
  IN510                0.00   1160.52     58.72      0.00
  TN511                0.00   1160.52     58.72      0.00
  IN512                0.00   1160.26     56.01      0.00
  TN513                0.00   1160.26     56.44      0.00
  TN514                0.00   1160.26     56.01      0.00
  TN516                0.00   1165.38     58.66      0.00
  TN518                0.00   1187.34     69.04      0.00
  TN520                0.28   1197.80     73.57      0.00
  TN522                0.07   1205.54     76.93      0.00
  TN524                0.21   1213.78     80.93      0.00
  TN526                0.14   1221.61     84.32      0.00
  TN528                0.14   1185.71     67.90      0.00
  TN530                0.07   1168.02     59.37      0.00
  TN532                0.34   1155.13     53.35      0.00
  TN534                0.14   1155.13     51.18      0.00
  TN536                0.14   1214.12     80.65      0.00
  TN537                0.07   1214.12     81.08      0.00
  TN539                0.14   1185.51     67.38      0.00
  TN540                0.21   1185.51     68.25      0.00
  TN542                0.21   1159.27     52.98      0.00
  TN543                0.14   1159.28     52.98      0.00
  TN545                0.14   1159.13     54.65      0.00
  TN547                0.21   1159.12     53.78      0.00
  TN549                0.07   1159.21     53.39      0.00
  TN551                0.07   1159.01     55.47      0.00
  TN552                0.14   1159.01     55.03      0.00
  TN554                0.07   1158.97     56.75      0.00
  TN555                0.21   1158.95     56.74      0.00
  TN557                0.21   1160.08     55.06      0.00
  TN559                0.34   1160.07     55.93      0.00
  TN561                0.07   1160.11     57.24      0.00
  TN562                0.28   1160.08     54.20      0.00
  TN564                0.07   1160.10     55.07      0.00
  TN565                0.00   1160.12     55.95      0.00
  TN566                0.21   1160.10     57.24      0.00
  TN568                0.28   1161.33     56.91      0.00
  TN569                0.28   1161.33     56.91      0.00
  TN571                0.28   1160.93     57.16      0.00
  TN573                0.14   1161.21     56.85      0.00
  TN575                0.21   1160.95     56.31      0.00
  TN577                0.27   1159.20     49.48      0.00
  TN579                0.27   1159.24     49.93      0.00
  TN581                0.14   1159.29     50.82      0.00
  TN583                0.41   1159.31     51.26      0.00
  TN585                0.34   1159.19     49.91      0.00
  TN587                0.21   1159.28     51.25      0.00
  TN589                0.00   1159.34     52.14      0.00
  TN591                0.14   1160.05     52.45      0.00
  TN593                0.07   1160.07     53.33      0.00
  TN595                0.21   1160.08     54.20      0.00
  TN596                0.21   1160.03     51.58      0.00
  TN598                0.14   1160.07     52.89      0.00
  TN599                0.07   1160.09     53.34      0.00
  TN601                0.07   1160.79     56.24      0.00
  TN603                0.41   1160.67     55.32      0.00
  TN605                0.07   1160.64     54.01      0.00
  TN607                0.14   1160.63     53.13      0.00
  TN609                0.21   1160.69     56.20      0.00
  TN610                0.21   1160.76     56.66      0.00
  TN612                0.00   1252.23     96.73      0.00
  TN614                0.21   1233.46     88.16      0.00
  TN616                0.00   1217.10     80.64      0.00
  TN618                0.21   1202.72     73.54      0.00
  TN620                0.21   1160.76     54.06      0.00
  TN622                0.28   1160.85     56.27      0.00
  TN624                0.07   1161.60     57.02      0.00
  TN626                0.14   1160.73     54.05      0.00
  TN628                0.21   1160.89     55.85      0.00
  TN630                0.07   1163.58     57.01      0.00
  TN632                0.07   1160.73     45.81      0.00
  TN634                0.34   1160.73     50.58      0.00
  TN636                0.28   1160.73     53.61      0.00
  TN638                0.34   1160.89     54.11      0.00
  TN640                0.07   1160.89     55.41      0.00
  TN642                0.34   1163.58     55.28      0.00
  TN644                0.21   1163.58     56.58      0.00
  TN646                0.34   1163.58     55.71      0.00
  TN648                0.00   1163.58     56.58      0.00
  TN650                0.21   1163.58     56.58      0.00
  TN652                0.00   1163.58     57.01      0.00
  TN654                0.28   1163.58     57.01      0.00
  TN656                0.41   1163.58     57.88      0.00
  TN658                0.34   1163.58     57.88      0.00
  VN659                0.00   1163.58     57.88      0.00
  TN660                0.21   1163.58     57.88      0.00
  TN662                0.21   1328.65    128.54      0.00
  TN664                0.21   1328.19    128.77      0.00
  VN665                0.00   1327.68    128.55      0.00
  TN666                0.21   1327.68    128.55      0.00
  TN668                0.14   1327.28    128.81      0.00
  TN670                0.14   1326.99    128.69      0.00
  TN672                0.00   1326.66    128.54      0.00
  TN674                0.27   1326.39    128.42      0.00
  TN676                0.14   1326.10    128.73      0.00
  TN678                0.14   1270.56    104.24      0.00
  TN679                0.27   1326.99    128.25      0.00
  TN681                0.14   1327.82    128.18      0.00
  TN683                0.21   1328.48    128.03      0.00
  TN685                0.00   1159.20     46.02      0.00
  TN687                0.00   1159.20     46.45      0.00
  TN689                0.14   1159.19     47.31      0.00
  TN691                0.14   1159.19     47.75      0.00
  TN693                0.21   1159.18     48.61      0.00
  TN695                0.27   1159.18     49.04      0.00
  TN697                0.07   1158.54     46.59      0.00
  TN699                0.14   1158.53     46.59      0.00
  TN701                0.07   1158.53     46.59      0.00
  TN703                0.21   1158.52     47.02      0.00
  TN705                0.28   1158.52     47.02      0.00
  TN707                0.21   1158.52     47.46      0.00
  TN709                0.21   1158.52     50.05      0.00
  TN711                0.21   1158.52     50.92      0.00
  TN713                0.21   1159.18     47.74      0.00
  TN715                0.21   1159.18     49.04      0.00
  TN717                0.14   1158.52     51.35      0.00
  TN719                0.07   1158.52     52.22      0.00
  TN721                0.21   1158.50     52.65      0.00
  TN723                0.14   1158.50     53.51      0.00
  TN725                0.27   1158.38     55.19      0.00
  IN726                0.00   1158.24     55.56      0.00
  TN727                0.07   1158.23     55.56      0.00
  TN729                0.28   1158.03     57.21      0.00
  TN731                0.27   1157.84     57.13      0.00
  TN733                0.21   1157.67     57.49      0.00
  TN735                0.34   1157.48     57.40      0.00
  TN737                0.14   1157.28     57.32      0.00
  TN739                0.28   1156.95     58.04      0.00
  TN741                0.07   1156.79     57.10      0.00
  TN743                0.07   1156.59     56.58      0.00
  TN745                0.27   1156.38     56.06      0.00
  TN747                0.07   1160.04     45.95      0.00
  TN749                0.00   1160.05     46.82      0.00
  TN751                0.07   1160.04     47.68      0.00
  TN753                0.14   1160.03     50.28      0.00
  TN755                0.00   1160.62     51.40      0.00
  TN757                0.07   1160.61     52.26      0.00
  TN759                0.07   1160.61     50.96      0.00
  TN761                0.14   1160.60     50.09      0.00
  TN763                0.28   1160.58     49.65      0.00
  TN765                0.34   1160.57     49.21      0.00
  TN767                0.21   1160.70     52.73      0.00
  TN769                0.07   1160.72     51.44      0.00
  TN771                0.34   1160.69     50.56      0.00
  TN773                0.27   1160.69     49.26      0.00
  TN775                0.07   1160.72     49.27      0.00
  TN777                0.21   1160.69     52.73      0.00
  TN779                0.07   1160.72     47.98      0.00
  TN781                0.14   1160.60     47.92      0.00
  TN783                0.00   1160.62     47.07      0.00
  TN785                0.14   1160.60     46.62      0.00
  TN787                0.21   1160.59     46.18      0.00
  TN789                0.07   1160.61     47.49      0.00
  TN791                0.00   1160.73     45.38      0.00
  TN793                0.21   1160.66     46.65      0.00
  TN795                0.28   1160.69     46.23      0.00
  TN797                0.14   1160.71     46.67      0.00
  TN799                0.07   1156.11     58.11      0.00
  TN801                0.34   1156.28     58.18      0.00
  TN802                0.07   1160.84     56.69      0.00
  TN804                0.14   1160.79     55.80      0.00
  TN805                0.21   1160.73     54.48      0.00
  TN807                0.14   1162.98     57.62      0.00
  TN808                0.41   1252.17     95.83      0.00
  TN810                0.21   1270.53    104.66      0.00
  TN812                0.14   1184.35     63.41      0.00
  TN814               10.31   1222.49     80.81      0.00
  TN816                8.66   1188.77     63.60      0.00
  VN817                0.00   1160.50     58.71      0.00
  VN818                0.00   1160.50     58.71      0.00
  VN819                0.00   1160.50     57.85      0.00
  VN820                0.00   1160.50     57.85      0.00
  VN822                0.00   1160.31     56.46      0.00
  VN823                0.00   1160.31     56.46      0.00
  IN824                0.00   1165.38     58.23      0.00
  IN825                0.00   1168.02     59.81      0.00
  VN826                0.00   1168.87     60.17      0.00
  VN827                0.00   1168.87     60.17      0.00
  IN828                0.00   1185.71     67.90      0.00
  VN829                0.00   1187.14     68.52      0.00
  VN830                0.00   1187.14     68.52      0.00
  IN831                0.00   1187.34     68.61      0.00
  IN832                0.00   1156.48     55.67      0.00
  VN833                0.00   1156.48     55.24      0.00
  VN834                0.00   1156.48     55.24      0.00
  IN835                0.00   1155.64     53.14      0.00
  VN836                0.00   1155.65     53.15      0.00
  VN837                0.00   1155.65     53.15      0.00
  VN838                0.00   1155.69     51.43      0.00
  VN839                0.00   1155.69     51.43      0.00
  IN840                0.00   1155.71     51.01      0.00
  VN841                0.00   1155.77     51.03      0.00
  VN842                0.00   1155.77     51.03      0.00
  VN843                0.00   1155.84     51.06      0.00
  VN844                0.00   1155.84     51.06      0.00
  IN845                0.00   1155.85     51.06      0.00
  VN846                0.00   1155.85     51.06      0.00
  VN847                0.00   1155.85     51.06      0.00
  IN848                0.00   1155.86     51.07      0.00
  IN849                0.00   1155.86     51.07      0.00
  VN850                0.00   1155.87     51.51      0.00
  VN851                0.00   1155.87     51.51      0.00
  IN852                0.00   1155.89     51.51      0.00
  IN853                0.00   1155.89     51.52      0.00
  VN854                0.00   1155.90     51.95      0.00
  VN855                0.00   1155.90     51.95      0.00
  VN856                0.00   1155.90     54.55      0.00
  VN857                0.00   1155.90     54.55      0.00
  IN858                0.00   1155.91     54.99      0.00
  IN859                0.00   1155.91     54.99      0.00
  VN860                0.00   1155.94     56.30      0.00
  VN861                0.00   1155.94     56.30      0.00
  IN862                0.00   1155.96     57.18      0.00
  VN863                0.00   1155.99     57.62      0.00
  IN864                0.00   1156.02     58.07      0.00
  IN865                0.00   1156.03     58.94      0.00
  VN866                0.00   1156.04     58.95      0.00
  VN867                0.00   1155.99     57.62      0.00
  VN868                0.00   1155.85     51.06      0.00
  IN869                0.00   1155.12     51.18      0.00
  VN870                0.00   1155.13     51.62      0.00
  VN871                0.00   1155.13     51.62      0.00
  IN872                0.00   1155.13     51.62      0.00
  VN873                0.00   1155.13     52.92      0.00
  VN874                0.00   1155.13     52.92      0.00
  IN875                0.00   1155.13     53.35      0.00
  IN876                0.00   1194.35     72.08      0.00
  IN877                0.00   1197.80     73.57      0.00
  IN878                0.00   1205.54     76.93      0.00
  VN879                0.00   1207.39     77.73      0.00
  VN880                0.00   1207.39     77.73      0.00
  IN881                0.00   1213.78     80.50      0.00
  IN882                0.00   1219.05     83.22      0.00
  IN883                0.00   1221.61     84.33      0.00
  VN884                0.00   1224.14     85.42      0.00
  VN885                0.00   1224.14     85.42      0.00
  IN886                0.00   1226.40     86.40      0.00
  IN887                0.00   1224.23     85.46      0.00
  VN888                0.00   1220.42     83.81      0.00
  VN889                0.00   1220.42     83.81      0.00
  IN890                0.00   1214.12     80.65      0.00
  IN891                0.00   1185.51     67.38      0.00
  IN892                0.00   1161.37     56.92      0.00
  IN893                0.00   1160.12     57.25      0.00
  VN894                0.00   1164.06     59.39      0.00
  VN895                0.00   1164.06     59.39      0.00
  IN896                0.00   1164.41     59.54      0.00
  IN897                0.00   1168.68     61.82      0.00
  IN898                0.00   1168.87     61.90      0.00
  IN901                0.00   1170.28     62.95      0.00
  VN902                0.00   1169.52     62.62      0.00
  VN903                0.00   1169.52     62.62      0.00
  IN904                0.00   1168.62     62.23      0.00
  VN905                0.00   1162.88     59.74      0.00
  VN906                0.00   1162.88     59.74      0.00
  VN907                0.00   1157.20     56.85      0.00
  IN908                0.00   1157.76     57.52      0.00
  VN909                0.00   1157.91     57.59      0.00
  VN910                0.00   1157.91     57.59      0.00
  IN911                0.00   1158.18     57.71      0.00
  VN912                0.00   1158.58     57.88      0.00
  VN913                0.00   1158.58     57.88      0.00
  IN914                0.00   1158.62     57.90      0.00
  IN915                0.00   1159.07     58.09      0.00
  IN916                0.00   1159.29     58.19      0.00
  IN917                0.00   1159.09     57.23      0.00
  VN918                0.00   1159.08     57.23      0.00
  VN919                0.00   1159.08     57.23      0.00
  IN920                0.00   1158.97     56.75      0.00
  VN921                0.00   1157.97     57.18      0.00
  VN922                0.00   1159.14     58.12      0.00
  VN923                0.00   1159.14     58.12      0.00
  VN924                0.00   1159.93     58.47      0.00
  VN925                0.00   1159.93     58.47      0.00
  VN926                0.00   1164.96     60.65      0.00
  VN927                0.00   1164.96     60.65      0.00
  VN928                0.00   1175.45     64.76      0.00
  VN929                0.00   1175.45     64.76      0.00
  VN930                0.00   1226.40     86.83      0.00
  VN931                0.00   1226.40     86.83      0.00
  VN932                0.00   1268.24    104.53      0.00
  VN933                0.00   1169.99     56.76      0.00
  IN934                0.00   1161.76     53.19      0.00
  IN935                0.00   1158.05     51.15      0.00
  IN936                0.00   1156.98     50.69      0.00
  IN937                0.00   1156.95     50.67      0.00
  IN938                0.00   1156.90     50.65      0.00
  IN939                0.00   1156.80     50.61      0.00
  VN940                0.00   1156.79     50.61      0.00
  VN941                0.00   1156.79     50.61      0.00
  IN942                0.00   1156.77     50.60      0.00
  IN943                0.00   1156.71     51.01      0.00
  IN944                0.00   1156.69     50.99      0.00
  IN945                0.00   1156.65     51.41      0.00
  VN946                0.00   1156.64     51.41      0.00
  VN947                0.00   1156.64     51.41      0.00
  IN948                0.00   1156.64     51.84      0.00
  IN949                0.00   1156.59     52.68      0.00
  VN950                0.00   1156.56     52.67      0.00
  VN951                0.00   1156.56     52.67      0.00
  IN953                0.00   1156.52     53.95      0.00
  IN954                0.00   1156.43     55.22      0.00
  VN955                0.00   1156.43     55.21      0.00
  VN956                0.00   1156.43     55.21      0.00
  IN957                0.00   1156.37     56.92      0.00
  IN958                0.00   1156.32     57.33      0.00
  VN959                0.00   1156.31     58.20      0.00
  VN960                0.00   1156.14     58.12      0.00
  IN961                0.00   1156.12     58.11      0.00
  VN962                0.00   1156.12     56.81      0.00
  VN963                0.00   1156.12     56.81      0.00
  IN964                0.00   1156.07     55.93      0.00
  VN966                0.00   1156.04     54.61      0.00
  VN967                0.00   1156.04     54.61      0.00
  VN969                0.00   1155.97     51.12      0.00
  VN970                0.00   1155.95     50.67      0.00
  VN971                0.00   1155.95     50.67      0.00
  IN973                0.00   1155.90     50.22      0.00
  IN974                0.00   1155.71     50.14      0.00
  VN975                0.00   1155.71     50.14      0.00
  VN976                0.00   1155.71     50.14      0.00
  IN978                0.00   1155.48     50.47      0.00
  VN979                0.00   1155.46     50.46      0.00
  VN980                0.00   1155.46     50.46      0.00
  IN981                0.00   1155.27     50.81      0.00
  VN982                0.00   1155.22     50.79      0.00
  VN983                0.00   1155.22     50.79      0.00
  VN984                0.00   1156.43     56.08      0.00
  IN985                0.00   1156.46     55.66      0.00
  IN986                0.00   1156.63     52.70      0.00
  VN987                0.00   1156.65     51.85      0.00
  VN988                0.00   1156.65     51.85      0.00
  VN989                0.00   1156.76     51.02      0.00
  VN990                0.00   1156.76     51.02      0.00
  VN991                0.00   1156.88     50.64      0.00
  VN992                0.00   1156.88     50.64      0.00
  VN993                0.00   1156.96     50.25      0.00
  VN994                0.00   1156.96     50.25      0.00
  IN995                0.00   1156.97     50.25      0.00
  IN996                0.00   1156.50     48.75      0.00
  VN997                0.00   1155.94     50.24      0.00
  VN998                0.00   1155.94     50.24      0.00
  VN999                0.00   1156.07     60.26      0.00
  VN1000               0.00   1156.07     60.26      0.00
  VN1001               0.00   1156.02     58.94      0.00
  VN1002               0.00   1156.02     58.94      0.00
  VN1003               0.00   1155.98     56.75      0.00
  VN1004               0.00   1155.98     56.75      0.00
  VN1005               0.00   1155.94     53.71      0.00
  VN1006               0.00   1155.94     53.71      0.00
  VN1009               0.00   1155.91     52.39      0.00
  VN1010               0.00   1155.91     52.39      0.00
  VN1013               0.00   1155.88     51.51      0.00
  VN1014               0.00   1155.88     51.51      0.00
  VN1015               0.00   1155.86     51.07      0.00
  VN1016               0.00   1155.86     51.07      0.00
  IN1017               0.00   1155.86     51.07      0.00
  VN1018               0.00   1155.87     51.50      0.00
  VN1019               0.00   1155.87     51.50      0.00
  VN1020               0.00   1155.87     51.94      0.00
  VN1021               0.00   1155.87     51.94      0.00
  VN1022               0.00   1155.88     54.11      0.00
  VN1023               0.00   1155.85     51.07      0.00
  IN1024               0.00   1161.36     56.92      0.00
  IN1025               0.00   1161.36     56.92      0.00
  VN1026               0.00   1161.32     56.90      0.00
  VN1027               0.00   1161.32     56.90      0.00
  IN1028               0.00   1161.25     56.87      0.00
  IN1029               0.00   1161.00     56.76      0.00
  IN1030               0.00   1160.84     56.69      0.00
  IN1031               0.00   1160.84     56.69      0.00
  IN1032               0.00   1160.11     54.21      0.00
  IN1033               0.00   1160.11     54.21      0.00
  VN1034               0.00   1160.11     54.21      0.00
  VN1035               0.00   1160.11     54.21      0.00
  IN1036               0.00   1160.11     55.08      0.00
  IN1037               0.00   1160.11     55.51      0.00
  IN1038               0.00   1160.12     55.95      0.00
  IN1039               0.00   1160.12     56.38      0.00
  IN1040               0.00   1160.12     56.38      0.00
  VN1042               0.00   1160.12     57.25      0.00
  VN1043               0.00   1160.12     57.25      0.00
  IN1044               0.00   1158.97     55.45      0.00
  VN1045               0.00   1159.00     55.46      0.00
  VN1046               0.00   1159.00     55.46      0.00
  IN1047               0.00   1159.02     55.47      0.00
  IN1048               0.00   1159.15     54.66      0.00
  IN1049               0.00   1159.21     53.82      0.00
  IN1050               0.00   1159.29     52.55      0.00
  IN1051               0.00   1159.35     52.15      0.00
  VN1052               0.00   1159.35     52.15      0.00
  VN1053               0.00   1158.83     55.39      0.00
  VN1054               0.00   1159.03     55.48      0.00
  VN1055               0.00   1159.03     55.48      0.00
  VN1056               0.00   1159.58     57.01      0.00
  VN1057               0.00   1159.58     57.01      0.00
  VN1058               0.00   1160.17     56.40      0.00
  VN1059               0.00   1160.17     56.40      0.00
  VN1060               0.00   1161.52     56.99      0.00
  VN1061               0.00   1161.52     56.99      0.00
  IN1062               0.00   1163.58     57.88      0.00
  VN1063               0.00   1159.35     52.15      0.00
  VN1064               0.00   1160.14     54.22      0.00
  VN1065               0.00   1160.14     54.22      0.00
  IN1066               0.00   1160.89     56.72      0.00
  VN1067               0.00   1160.73     53.61      0.00
  IN1068               0.00   1160.73     53.61      0.00
  IN1069               0.00   1160.76     54.49      0.00
  IN1070               0.00   1160.81     55.81      0.00
  VN1071               0.00   1160.82     55.82      0.00
  VN1072               0.00   1160.82     55.82      0.00
  IN1073               0.00   1160.85     56.27      0.00
  VN1074               0.00   1160.88     56.71      0.00
  VN1075               0.00   1160.88     56.71      0.00
  IN1076               0.00   1161.60     57.02      0.00
  IN1077               0.00   1163.01     57.63      0.00
  VN1078               0.00   1173.02     61.97      0.00
  VN1079               0.00   1173.02     61.97      0.00
  IN1080               0.00   1279.69    108.63      0.00
  IN1081               0.00   1270.56    104.67      0.00
  VN1082               0.00   1256.43     98.11      0.00
  VN1083               0.00   1256.43     98.11      0.00
  IN1084               0.00   1252.23     96.29      0.00
  IN1085               0.00   1242.27     91.98      0.00
  IN1086               0.00   1233.49     88.17      0.00
  VN1087               0.00   1232.74     87.85      0.00
  VN1088               0.00   1232.74     87.85      0.00
  IN1089               0.00   1224.22     83.72      0.00
  IN1090               0.00   1217.10     80.20      0.00
  VN1091               0.00   1213.15     78.49      0.00
  VN1092               0.00   1213.15     78.49      0.00
  IN1093               0.00   1208.51     75.18      0.00
  IN1094               0.00   1202.75     71.82      0.00
  VN1095               0.00   1190.53     66.52      0.00
  VN1096               0.00   1190.53     66.52      0.00
  IN1097               0.00   1190.08     65.90      0.00
  IN1098               0.00   1184.37     63.42      0.00
  IN1099               0.00   1174.61     58.76      0.00
  VN1101               0.00   1169.99     56.76      0.00
  IN1102               0.00   1160.80     56.24      0.00
  VN1103               0.00   1160.73     55.78      0.00
  VN1104               0.00   1160.73     55.78      0.00
  IN1105               0.00   1160.73     55.78      0.00
  IN1106               0.00   1160.65     54.44      0.00
  IN1107               0.00   1160.62     52.70      0.00
  IN1108               0.00   1160.62     52.70      0.00
  IN1109               0.00   1160.62     51.83      0.00
  IN1110               0.00   1160.05     51.59      0.00
  IN1111               0.00   1160.05     51.59      0.00
  VN1112               0.00   1160.05     51.59      0.00
  VN1113               0.00   1160.05     51.59      0.00
  IN1114               0.00   1160.06     52.02      0.00
  IN1115               0.00   1160.08     52.90      0.00
  IN1116               0.00   1160.10     53.77      0.00
  VN1117               0.00   1160.11     54.21      0.00
  VN1118               0.00   1160.11     54.21      0.00
  VN1119               0.00   1159.35     52.15      0.00
  IN1120               0.00   1159.34     51.71      0.00
  IN1121               0.00   1159.30     51.26      0.00
  IN1122               0.00   1159.26     50.38      0.00
  IN1123               0.00   1159.22     49.49      0.00
  IN1124               0.00   1159.20     49.49      0.00
  VN1125               0.00   1159.20     49.49      0.00
  VN1126               0.00   1268.24    104.53      0.00
  IN1127               0.00   1326.10    128.73      0.00
  VN1129               0.00   1158.54     51.80      0.00
  VN1130               0.00   1159.35     52.15      0.00
  VN1131               0.00   1160.89     55.42      0.00
  VN1132               0.00   1158.54     48.33      0.00
  VN1133               0.00   1159.25     49.50      0.00
  VN1134               0.00   1159.25     49.50      0.00
  VN1135               0.00   1159.66     50.55      0.00
  VN1136               0.00   1159.66     50.55      0.00
  VN1137               0.00   1160.60     53.99      0.00
  VN1138               0.00   1160.60     53.99      0.00
  VN1139               0.00   1160.63     52.70      0.00
  VN1140               0.00   1160.63     52.70      0.00
  IN1142               0.00   1160.73     47.98      0.00
  IN1143               0.00   1160.73     49.28      0.00
  VN1144               0.00   1160.73     50.15      0.00
  VN1145               0.00   1160.73     50.15      0.00
  IN1146               0.00   1160.73     50.15      0.00
  IN1147               0.00   1160.73     51.45      0.00
  IN1148               0.00   1160.73     52.31      0.00
  IN1149               0.00   1160.73     52.31      0.00
  VN1150               0.00   1160.73     53.61      0.00
  IN1151               0.00   1160.62     50.97      0.00
  VN1152               0.00   1160.62     49.67      0.00
  VN1153               0.00   1160.62     49.67      0.00
  IN1154               0.00   1160.62     49.67      0.00
  IN1155               0.00   1160.62     49.23      0.00
  IN1156               0.00   1160.05     45.52      0.00
  VN1157               0.00   1160.05     45.52      0.00
  VN1158               0.00   1160.05     45.52      0.00
  IN1159               0.00   1160.05     45.95      0.00
  VN1160               0.00   1160.05     46.39      0.00
  VN1161               0.00   1160.05     46.39      0.00
  IN1162               0.00   1160.05     46.82      0.00
  IN1163               0.00   1160.05     47.69      0.00
  VN1164               0.00   1160.05     48.12      0.00
  VN1165               0.00   1160.05     48.12      0.00
  IN1166               0.00   1160.05     50.72      0.00
  VN1167               0.00   1160.05     51.59      0.00
  VN1168               0.00   1160.05     51.59      0.00
  VN1170               0.00   1159.20     49.05      0.00
  IN1171               0.00   1159.20     49.05      0.00
  IN1172               0.00   1159.20     48.62      0.00
  IN1173               0.00   1159.20     47.75      0.00
  VN1174               0.00   1159.20     47.75      0.00
  VN1175               0.00   1159.20     47.75      0.00
  IN1176               0.00   1159.20     47.32      0.00
  VN1177               0.00   1159.20     46.89      0.00
  VN1178               0.00   1159.20     46.89      0.00
  IN1179               0.00   1159.20     46.45      0.00
  VN1180               0.00   1159.20     46.02      0.00
  VN1181               0.00   1158.54     47.03      0.00
  VN1182               0.00   1158.54     46.60      0.00
  VN1183               0.00   1158.54     46.60      0.00
  IN1184               0.00   1158.54     46.16      0.00
  VN1185               0.00   1158.54     46.60      0.00
  VN1186               0.00   1158.54     46.60      0.00
  IN1187               0.00   1158.54     46.60      0.00
  IN1188               0.00   1158.54     46.60      0.00
  IN1189               0.00   1158.54     46.60      0.00
  VN1190               0.00   1158.54     47.03      0.00
  VN1191               0.00   1158.54     47.03      0.00
  IN1192               0.00   1158.54     47.03      0.00
  IN1193               0.00   1158.54     47.03      0.00
  IN1194               0.00   1158.54     47.46      0.00
  IN1195               0.00   1158.54     50.06      0.00
  IN1196               0.00   1158.53     50.49      0.00
  VN1197               0.00   1158.53     50.93      0.00
  VN1198               0.00   1158.53     50.93      0.00
  IN1199               0.00   1158.53     50.93      0.00
  IN1200               0.00   1158.53     51.36      0.00
  IN1201               0.00   1158.52     51.79      0.00
  VN1202               0.00   1158.52     52.22      0.00
  VN1203               0.00   1158.52     52.22      0.00
  IN1204               0.00   1158.52     52.65      0.00
  IN1205               0.00   1158.51     53.08      0.00
  VN1206               0.00   1158.51     53.08      0.00
  VN1207               0.00   1158.51     53.08      0.00
  IN1208               0.00   1158.51     54.38      0.00
  IN1209               0.00   1158.41     54.77      0.00
  IN1210               0.00   1158.06     55.92      0.00
  VN1211               0.00   1158.01     57.20      0.00
  VN1212               0.00   1158.01     57.20      0.00
  IN1213               0.00   1157.97     57.18      0.00
  IN1214               0.00   1157.87     57.14      0.00
  VN1215               0.00   1157.74     57.51      0.00
  VN1216               0.00   1157.74     57.51      0.00
  IN1217               0.00   1157.70     57.50      0.00
  IN1218               0.00   1157.51     57.85      0.00
  VN1219               0.00   1157.39     58.23      0.00
  VN1220               0.00   1157.39     58.23      0.00
  IN1221               0.00   1157.30     58.19      0.00
  VN1222               0.00   1157.02     58.50      0.00
  VN1223               0.00   1157.02     58.50      0.00
  IN1224               0.00   1156.98     58.49      0.00
  IN1225               0.00   1156.80     57.54      0.00
  VN1226               0.00   1156.64     57.04      0.00
  VN1227               0.00   1156.64     57.04      0.00
  IN1228               0.00   1156.59     57.02      0.00
  IN1229               0.00   1156.41     56.51      0.00
  IN1230               0.00   1156.31     56.03      0.00
  VN1231               0.00   1156.31     55.60      0.00
  VN1232               0.00   1156.31     55.60      0.00
  VN1233               0.00   1156.28     54.28      0.00
  VN1234               0.00   1157.97     57.18      0.00
  VN1235               0.00   1157.97     57.18      0.00
  VN1236               0.00   1157.97     57.18      0.00
  VN1237               0.00   1158.53     54.39      0.00
  VN1238               0.00   1158.53     54.39      0.00
  VN1239               0.00   1158.68     54.89      0.00
  VN1240               0.00   1158.68     54.89      0.00
  VN1241               0.00   1158.83     55.39      0.00
  VN1242               0.00   1158.53     50.93      0.00
  VN1243               0.00   1158.53     50.93      0.00
  VN1244               0.00   1158.54     51.80      0.00
  VN1245               0.00   1158.54     47.03      0.00
  VN1246               0.00   1158.54     47.03      0.00
  VN1247               0.00   1158.54     48.33      0.00
  VN1248               0.00   1160.73     53.61      0.00
  VN1249               0.00   1160.73     53.61      0.00
  VN1250               0.00   1160.73     53.61      0.00
  IN1251               0.00   1160.73     52.75      0.00
  IN1252               0.00   1326.39    128.42      0.00
  IN1253               0.00   1326.66    128.54      0.00
  VN1254               0.00   1326.94    128.66      0.00
  VN1255               0.00   1326.94    128.66      0.00
  IN1256               0.00   1327.00    128.25      0.00
  IN1257               0.00   1327.28    128.38      0.00
  VN1259               0.00   1327.68    128.55      0.00
  IN1260               0.00   1327.82    128.61      0.00
  IN1261               0.00   1328.19    128.34      0.00
  IN1262               0.00   1328.48    128.46      0.00
  VN1263               0.00   1328.50    128.48      0.00
  VN1264               0.00   1328.50    128.48      0.00
  IN1265               0.00   1328.65    128.54      0.00
  IN1266               0.00   1160.73     45.81      0.00
  IN1267               0.00   1160.73     46.25      0.00
  IN1268               0.00   1160.73     46.25      0.00
  IN1269               0.00   1160.73     46.68      0.00
  VN1270               0.00   1160.73     47.11      0.00
  VN1271               0.00   1160.73     47.11      0.00
  IN1272               0.00   1160.73     47.55      0.00
  IN1273               0.00   1160.62     47.50      0.00
  IN1274               0.00   1160.62     47.50      0.00
  VN1275               0.00   1160.62     47.07      0.00
  VN1276               0.00   1160.62     47.07      0.00
  IN1277               0.00   1160.62     46.63      0.00
  IN1278               0.00   1160.62     46.63      0.00
  IN1279               0.00   1160.62     46.20      0.00
  IN1280               0.00   1160.62     46.20      0.00
  IN1281               0.00   1160.62     46.20      0.00
  VN1283               0.00   1163.58     57.88      0.00
  IN1284               0.00   1163.58     57.45      0.00
  IN1285               0.00   1163.58     57.45      0.00
  VN1286               0.00   1163.58     57.45      0.00
  VN1287               0.00   1163.58     57.45      0.00
  IN1288               0.00   1163.58     57.45      0.00
  IN1289               0.00   1163.58     57.01      0.00
  IN1290               0.00   1163.58     57.01      0.00
  IN1291               0.00   1163.58     56.58      0.00
  VN1292               0.00   1163.58     56.58      0.00
  VN1293               0.00   1163.58     56.58      0.00
  IN1294               0.00   1163.58     56.58      0.00
  IN1295               0.00   1163.58     55.71      0.00
  IN1296               0.00   1163.58     55.71      0.00
  IN1297               0.00   1163.58     55.71      0.00
  VN1298               0.00   1163.58     55.71      0.00
  VN1299               0.00   1160.89     55.42      0.00
  VN1300               0.00   1160.89     54.55      0.00
  VN1301               0.00   1160.89     54.55      0.00
  IN1303               0.00   1160.89     53.68      0.00
  VN1305               0.00   1160.89     53.25      0.00
  VN1306               0.00   1160.73     52.75      0.00
  VN1307               0.00   1160.73     52.75      0.00
  IN1308               0.00   1160.73     52.75      0.00
  IN1309               0.00   1160.73     52.31      0.00
  VN1310               0.00   1160.73     52.31      0.00
  VN1311               0.00   1160.73     52.31      0.00
  IN1312               0.00   1160.73     49.71      0.00
  IN1313               0.00   1160.73     49.28      0.00
  VN1314               0.00   1160.73     49.28      0.00
  VN1315               0.00   1160.73     49.28      0.00
  IN1316               0.00   1160.73     48.41      0.00
  VN1317               0.00   1160.89     53.25      0.00
  IN1318               0.00   1160.89     53.25      0.00
  VN1319               0.00   1163.58     55.71      0.00
  IN1320               0.00   1163.58     55.71      0.00
  IN1321               0.00   1161.30     52.56      0.00
  VN1322               0.00   1160.53     52.23      0.00
  VN1323               0.00   1160.53     52.23      0.00
  IN1324               0.00   1159.95     51.98      0.00
  IN1325               0.00   1158.85     51.50      0.00
  VN1326               0.00   1158.78     51.47      0.00
  VN1327               0.00   1158.78     51.47      0.00
  IN1328               0.00   1158.61     51.39      0.00
  VN1329               0.00   1156.31     58.20      0.00
  IN1330               0.00   1156.31     59.06      0.00
  IN1331               0.00   1156.30     59.06      0.00
  IN1332               0.00   1156.29     59.06      0.00
  IN1333               0.00   1156.29     59.06      0.00
  VN1334               0.00   1156.29     59.05      0.00
  VN1335               0.00   1156.29     59.05      0.00
  IN1336               0.00   1156.29     59.05      0.00
  VN1337               0.00   1156.30     59.06      0.00
  VN1339               0.00   1156.15     58.99      0.00
  VN1340               0.00   1156.15     58.99      0.00
  IN1341               0.00   1156.15     58.99      0.00
  IN1342               0.00   1156.14     58.99      0.00
  VN1343               0.00   1156.14     58.12      0.00
  IN1344               0.00   1156.41     57.37      0.00
  VN1345               0.00   1156.30     59.06      0.00
  VN1346               0.00   1156.42     57.38      0.00
  VN1347               0.00   1156.41     57.38      0.00
  VN1348               0.00   1156.41     57.38      0.00
  IN1349               0.00   1156.42     57.38      0.00
  VN1350               0.00   1156.42     57.38      0.00
  VN1351               0.00   1156.42     57.38      0.00
  IN1352               0.00   1156.43     56.95      0.00
  VN1353               0.00   1156.43     56.08      0.00
  VN1354               0.00   1156.49     49.17      0.00
  VN1355               0.00   1156.49     49.17      0.00
  VN1356               0.00   1156.47     52.63      0.00
  VN1357               0.00   1156.47     52.63      0.00
  VN1358               0.00   1156.46     54.36      0.00
  VN1359               0.00   1156.46     54.36      0.00
  VN1360               0.00   1156.46     55.66      0.00
  VN1361               0.00   1156.46     55.66      0.00
  VN1362               0.00   1156.45     56.09      0.00
  VN1363               0.00   1156.45     56.09      0.00
  VN1364               0.00   1156.45     56.09      0.00
  VN1365               0.00   1156.45     56.09      0.00
  IN1366               0.00   1156.45     56.09      0.00
  VN1367               0.00   1156.45     56.09      0.00
  VN1368               0.00   1156.45     56.09      0.00
  VN1369               0.00   1156.46     56.09      0.00
  VN1370               0.00   1156.46     56.09      0.00
  IN1371               0.00   1156.46     56.09      0.00
  VN1372               0.00   1156.46     56.09      0.00
  VN1373               0.00   1156.46     56.09      0.00
  VN1374               0.00   1156.46     56.10      0.00
  VN1375               0.00   1156.46     56.10      0.00
  VN1376               0.00   1156.48     52.64      0.00
  VN1377               0.00   1156.48     52.64      0.00
  VN1378               0.00   1156.48     49.61      0.00
  VN1379               0.00   1156.48     49.61      0.00
  VN1380               0.00   1156.49     48.74      0.00
  VN1381               0.00   1156.49     48.74      0.00
  VN1382               0.00   1156.49     48.31      0.00
  VN1383               0.00   1156.49     48.31      0.00
  IN1384               0.00   1156.50     48.31      0.00
  VN1385               0.00   1156.50     48.31      0.00
  VN1386               0.00   1156.50     48.31      0.00
  VN1387               0.00   1156.50     48.75      0.00
  VN1388               0.00   1156.50     48.75      0.00
  IN1389               0.00   1161.28     52.55      0.00
  IN1390               0.00   1161.26     52.54      0.00
  IN1391               0.00   1161.24     52.53      0.00
  IN1392               0.00   1161.22     52.09      0.00
  IN1393               0.00   1161.21     51.22      0.00
  IN1394               0.00   1161.21     51.22      0.00
  IN1395               0.00   1161.20     50.78      0.00
  IN1396               0.00   1161.20     50.78      0.00
  IN1397               0.00   1158.35     49.12      0.00
  IN1398               0.00   1158.36     49.12      0.00
  IN1399               0.00   1158.37     49.55      0.00
  IN1400               0.00   1158.38     49.99      0.00
  IN1401               0.00   1158.41     50.01      0.00
  IN1402               0.00   1158.45     50.46      0.00
  IN1403               0.00   1158.51     51.35      0.00
  IN1404               0.00   1158.55     51.37      0.00
  VN1405               0.00   1155.88     54.11      0.00
  VN1406               0.00   1157.20     56.85      0.00
  IN1407               0.00   1156.11     56.81      0.00
  VN1408               0.00   1156.09     58.10      0.00
  VN1409               0.00   1156.09     58.10      0.00
  VN1410               0.00   1156.04     58.95      0.00
  VN1411               0.00   1155.85     51.06      0.00
  VN1412               0.00   1155.85     51.07      0.00
  VN1413               0.00   1156.14     58.99      0.00
  VN1414               0.00   1156.12     60.28      0.00
  VN1415               0.00   1156.12     60.28      0.00
  VN1416               0.00   1159.20     46.02      0.00
  IN1417               0.00   1159.20     45.59      0.00
  IN1418               0.00   1158.54     47.03      0.00
  VN1419               0.00   1158.54     47.03      0.00
  VN1420               0.00   1156.28     54.28      0.00
  VN1421               0.00   1156.25     53.41      0.00
  VN1422               0.00   1156.25     53.41      0.00
  VN1423               0.00   1156.23     52.10      0.00
  VN1424               0.00   1156.23     52.10      0.00
  VN1425               0.00   1156.21     53.39      0.00
  VN1426               0.00   1156.21     53.39      0.00
  IN1427               0.00   1156.20     53.38      0.00
  VN1428               0.00   1156.20     54.25      0.00
  VN1429               0.00   1156.20     54.25      0.00
  IN1430               0.00   1156.20     55.55      0.00
  VN1432               0.00   1156.20     55.55      0.00
  VN1433               0.00   1156.20     55.55      0.00
  VN1434               0.00   1156.19     59.01      0.00
  VN1435               0.00   1156.19     59.01      0.00
  VN1436               0.00   1156.19     60.74      0.00
  VN1437               0.00   1156.19     60.74      0.00
  VN1438               0.00   1156.18     61.18      0.00
  VN1439               0.00   1156.18     61.18      0.00
  VN1440               0.00   1156.18     61.17      0.00
  VN1441               0.00   1156.18     61.17      0.00
  IN1442               0.00   1156.18     59.87      0.00
  VN1443               0.00   1156.20     53.38      0.00
  VN1444               0.00   1156.20     53.38      0.00
  VN1445               0.00   1156.19     53.38      0.00
  VN1446               0.00   1156.19     53.38      0.00
  VN1447               0.00   1156.31     56.03      0.00
  VN1448               0.00   1156.31     56.03      0.00
  VN1449               0.00   1156.31     57.76      0.00
  VN1450               0.00   1156.31     57.76      0.00
  IN1451               0.00   1156.31     59.06      0.00
  VN1452               0.00   1156.31     59.06      0.00
  VN1453               0.00   1156.31     59.06      0.00
  VN1454               0.00   1156.31     60.36      0.00
  VN1455               0.00   1156.31     60.36      0.00
  IN1456               0.00   1156.31     60.36      0.00
  VN1457               0.00   1156.31     60.80      0.00
  VN1458               0.00   1156.31     60.80      0.00
  VN1459               0.00   1156.31     61.23      0.00
  VN1460               0.00   1156.31     61.23      0.00
  IN1461               0.00   1156.31     61.66      0.00
  VN1462               0.00   1156.31     61.23      0.00
  VN1463               0.00   1156.31     61.23      0.00
  VN1464               0.00   1156.31     60.36      0.00
  VN1465               0.00   1156.31     60.36      0.00
  IN1466               0.00   1156.31     60.36      0.00
  IN1467               0.00   1156.31     60.36      0.00
  VN1468               0.00   1329.22    127.48      0.00
  VN1469               0.00   1329.22    127.48      0.00
  IN1470               0.00   1329.72    127.27      0.00
  IN1471               0.00   1074.99     17.33      0.00
  VN1473               0.00   1156.22     57.29      0.00
  VN1475               0.00   1156.22     56.43      0.00
  VN1477               0.00   1156.16     57.26      0.00
  VN1478               0.00   1156.16     57.26      0.00
  VN1481               0.00   1156.16     57.26      0.00
  VN1482               0.00   1156.16     57.26      0.00
  VN1483               0.00   1156.11     56.81      0.00
  VN1484               0.00   1156.11     56.81      0.00
  VN1485               0.00   1156.13     58.12      0.00
  VN1486               0.00   1156.13     58.12      0.00
  IN1487               0.00   1156.14     58.12      0.00
  VN1488               0.00   1156.14     58.99      0.00
  VN1489               0.00   1156.18     59.87      0.00
  VN1490               0.00   1156.18     59.87      0.00
  IN1491               0.00   1156.44     56.52      0.00
  VN1492               0.00   1156.42     57.38      0.00
  PumpStation          0.00   1330.23    127.93      0.00
  IN1495               0.00   1096.34     26.58      0.00
  VN12                 0.00   1155.97     51.12      0.00
  HY1                  0.00   1208.51     75.18      0.00
  HY2                  0.00   1156.31     60.36      0.00
  HY4                  0.00   1156.31     60.36      0.00
  HY6                  0.00   1156.31     56.03      0.00
  HY7                  0.00   1156.19     53.38      0.00
  IN1500               0.00   1156.19     53.38      0.00
  IN1501               0.00   1158.54     47.03      0.00
  HY9                  0.00   1158.54     46.16      0.00
  IN1502               0.00   1158.54     46.16      0.00
  HY11                 0.00   1158.53     50.93      0.00
  HY12                 0.00   1158.51     54.38      0.00
  HY14                 0.00   1157.39     58.23      0.00
  IN1503               0.00   1157.39     58.23      0.00
  IN1504               0.00   1156.89     58.01      0.00
  IN1505               0.00   1156.28     54.50      0.00
  HY17                 0.00   1156.24     52.97      0.00
  IN1506               0.00   1156.24     52.97      0.00
  IN1507               0.00   1156.20     55.11      0.00
  HY19                 0.00   1156.19     59.66      0.00
  IN1508               0.00   1156.19     59.66      0.00
  IN1509               0.00   1156.18     61.61      0.00
  HY22                 0.00   1156.14     58.12      0.00
  IN1510               0.00   1156.11     60.49      0.00
  HY24                 0.00   1155.96     55.44      0.00
  IN1511               0.00   1155.96     55.44      0.00
  HY27                 0.00   1157.02     56.55      0.00
  IN1512               0.00   1157.02     56.55      0.00
  HY28                 0.00   1158.03     57.64      0.00
  IN1513               0.00   1158.03     57.64      0.00
  HY29                 0.00   1159.29     58.19      0.00
  HY31                 0.00   1159.20     49.49      0.00
  IN1514               0.00   1159.20     47.32      0.00
  HY33                 0.00   1159.20     45.59      0.00
  IN1515               0.00   1159.20     45.59      0.00
  HY34                 0.00   1160.05     45.52      0.00
  IN1516               0.00   1160.05     45.52      0.00
  HY35                 0.00   1160.05     47.25      0.00
  IN1517               0.00   1160.05     47.25      0.00
  HY37                 0.00   1160.11     54.21      0.00
  HY38                 0.00   1160.12     56.38      0.00
  IN1518               0.00   1160.46     57.40      0.00
  HY40                 0.00   1160.46     57.40      0.00
  HY41                 0.00   1155.64     53.14      0.00
  HY42                 0.00   1155.71     51.01      0.00
[...]
  IN1519               0.00   1150.40     55.20      4.00
  HY46                 0.00   1155.20     51.22      0.00
  HY47                 0.00   1155.20     50.35      0.00
  HY48                 0.00   1155.20     46.02      0.00
  HY49                 0.00   1155.38     50.86      0.00
  HY50                 0.00   1155.38     54.33      0.00
  HY51                 0.00   1276.63    107.30      0.00
  HY52                 0.00   1327.27    127.94      0.00
  HY53                 0.00   1152.35     48.68      0.00
  HY54                 0.00   1150.58     48.35      0.00
  HY55                 0.00   1150.47     54.80      0.00
  HY56                 0.00   1150.48     53.94      0.00
  HY57                 0.00   1150.48     50.04      0.00
  HY58                 0.00   1155.20     43.42      0.00
  HY59                 0.00   1155.09     43.80      0.00
  HY60                 0.00   1155.20     46.88      0.00
  HY61                 0.00   1155.09     50.30      0.00
  HY62                 0.00   1155.86     50.63      0.00
  HY63                 0.00   1189.53     69.99      0.00
  HY64                 0.00   1150.01     48.97      0.00
  HY65                 0.00   1158.11     54.64      0.00
  HY66                 0.00   1150.40     52.17      0.00
  HY67                 0.00   1150.49     46.14      0.00
  IN1520               0.00   1150.55     46.82      4.00
  HY68                 0.00   1150.55     46.82      0.00
  IN1521               0.00   1150.44     56.09      4.00
  HY69                 0.00   1150.44     56.09      0.00
  IN1522               0.00   1074.99     17.33      0.00
  TN1523               0.00   1154.53     43.99      4.00
  TN1525               0.00   1152.18     55.11      4.00
  TN1524               0.00   1214.64     81.31      4.00
  TN1526               0.00   1154.60     52.69      4.00
  TN1527               0.19   1175.28     62.95      3.99
  TN1528               0.19   1213.24     79.40      3.99
  TN1529               0.19   1255.14     97.12      3.99
  IN1530               0.00   1175.29     62.95      0.41
  IN1531               0.00   1213.24     79.40      0.41
  IN1532               0.00   1255.14     97.55      0.41
  TN1533              10.69   1150.38     54.33      4.00
  IN1534               0.00   1150.57     52.24      3.93
  IN1535               0.00   1150.70     52.30      3.90
  IN1536               0.00   1150.70     51.86      4.00
  IN1537               0.00   1150.66     50.11      4.00
  IN1538               0.00   1150.61     49.66      4.00
  IN1539               0.00   1150.61     49.23      4.00
  IN1540               0.00   1150.61     49.66      4.00
  IN1541               0.00   1150.59     50.52      4.00
  IN1542               0.00   1150.58     50.95      4.00
  IN1543               0.00   1150.58     52.68      4.00
  IN1544               0.00   1150.57     54.84      4.00
  IN1545               0.00   1150.56     56.57      4.00
  IN1546               0.00   1150.56     58.30      4.00
  IN1547               0.00   1150.56     58.74      4.00
  IN1548               0.00   1150.56     58.74      4.00
  IN1549               0.00   1150.45     56.52      4.00
  IN1550               0.00   1150.47     56.97      4.00
  IN1551               0.00   1150.44     55.65      4.00
  IN1552               0.00   1150.45     56.53      4.00
  TN1553               0.28   1150.66     51.85      4.00
  TN1554               0.47   1150.64     51.41      4.00
  TN1555               0.38   1150.65     52.28      4.00
  TN1556               0.09   1150.68     51.43      4.00
  TN1557               0.09   1150.65     50.11      4.00
  TN1558               0.19   1150.63     49.67      4.00
  TN1559               0.09   1150.64     50.54      4.00
  TN1560               0.09   1150.64     50.11      4.00
  TN1561               0.00   1150.61     49.23      4.00
  TN1562               0.09   1150.60     49.22      4.00
  TN1563               0.38   1150.57     49.64      4.00
  TN1564               0.09   1150.60     49.22      4.00
  TN1565               0.57   1150.55     49.20      4.00
  TN1566               0.28   1150.58     49.21      4.00
  TN1567               0.38   1150.57     49.64      4.00
  TN1568               0.09   1150.60     49.22      4.00
  TN1569               0.57   1150.54     49.63      4.00
  TN1570               0.19   1150.59     49.65      4.00
  TN1571               0.19   1150.59     49.22      4.00
  TN1572               0.57   1150.54     50.06      4.00
  TN1573               0.19   1150.56     50.07      4.00
  TN1574               0.28   1150.56     50.07      4.00
  TN1575               0.19   1150.57     50.08      4.00
  TN1576               0.38   1150.55     50.50      4.00
  TN1577               0.28   1150.54     50.93      4.00
  TN1578               0.09   1150.57     51.38      4.00
  TN1579               0.47   1150.53     51.36      4.00
  TN1580               0.19   1150.56     51.80      4.00
  TN1581               0.38   1150.53     51.79      4.00
  TN1582               0.19   1150.56     53.54      4.00
  TN1583               0.28   1150.55     52.67      4.00
  TN1584               0.09   1150.56     53.11      4.00
  TN1585               0.28   1150.53     54.39      4.00
  TN1586               0.38   1150.53     54.82      4.00
  TN1587               0.28   1150.54     54.83      4.00
  TN1588               0.19   1150.54     55.69      4.00
  TN1589               0.47   1150.49     55.68      4.00
  TN1590               0.19   1150.54     56.56      4.00
  TN1591               0.19   1150.55     56.57      4.00
  TN1592               0.28   1150.52     57.85      4.00
  TN1593               0.19   1150.53     57.43      4.00
  TN1594               0.09   1150.55     58.30      4.00
  TN1595               0.19   1150.54     58.30      4.00
  TN1596               0.00   1150.56     58.30      4.00
  TN1597               0.09   1150.55     58.30      4.00
  TN1598               0.28   1150.52     58.72      4.00
  TN1599               0.28   1150.54     58.73      4.00
  TN1600               0.38   1150.50     58.71      4.00
  IN1602               0.00   1150.44     49.59      3.93
  IN1603               0.00   1150.44     49.15      4.00
  IN1604               0.00   1150.40     48.27      4.00
  IN1605               0.00   1150.38     48.69      4.00
  IN1601               0.00   1150.47     51.33      3.97
  IN1606               0.00   1150.37     48.69      4.00
  IN1607               0.00   1150.37     48.69      4.00
  IN1608               0.00   1150.38     49.13      4.00
  IN1609               0.00   1150.39     50.00      4.00
  IN1610               0.00   1150.40     50.87      4.00
  IN1611               0.00   1150.42     53.91      4.00
  IN1612               0.00   1150.42     54.78      4.00
  IN1613               0.00   1150.44     56.08      4.00
  IN1614               0.00   1150.45     56.52      4.00
  IN1615               0.00   1150.47     56.96      4.00
  TN1616               0.28   1150.44     50.89      4.00
  TN1617               0.09   1150.44     49.59      4.00
  TN1618               0.19   1150.44     49.15      4.00
  TN1619               0.19   1150.44     49.15      4.00
  TN1620               0.00   1150.40     48.70      4.00
  TN1621               0.47   1150.40     48.70      4.00
  TN1622               0.38   1150.38     48.69      4.00
  TN1623               0.38   1150.37     48.69      4.00
  TN1624               0.09   1150.37     48.69      4.00
  TN1625               0.09   1150.38     49.13      4.00
  TN1626               0.00   1150.38     49.13      4.00
  TN1627               0.09   1150.39     49.57      4.00
  TN1628               0.47   1150.39     50.00      4.00
  TN1629               0.09   1150.40     50.44      4.00
  TN1630               0.47   1150.40     50.87      4.00
  TN1631               0.19   1150.42     53.48      4.00
  TN1632               0.38   1150.42     54.34      4.00
  TN1633               0.28   1150.42     54.78      4.00
  TN1634               0.28   1150.42     55.21      4.00
  TN1635               0.00   1150.44     56.08      4.00
  TN1636               0.09   1150.44     56.52      4.00
  TN1637               0.00   1150.45     56.96      4.00
  TN1638               0.09   1150.45     56.96      4.00
  TN1639               0.09   1150.47     56.96      4.00
  IN1640               0.00   1150.36     47.82      4.00
  IN1641               0.00   1150.37     47.82      4.00
  IN1642               0.00   1150.38     48.69      4.00
  IN1643               0.00   1150.38     50.43      4.00
  IN1644               0.00   1150.39     51.73      4.00
  IN1645               0.00   1150.39     53.03      4.00
  IN1646               0.00   1150.40     54.33      4.00
  IN1647               0.00   1150.42     55.64      4.00
  IN1648               0.00   1150.42     55.21      4.00
  TN1649               0.28   1150.37     47.82      4.00
  TN1650               0.19   1150.37     48.26      4.00
  TN1651               0.28   1150.38     48.26      4.00
  TN1652               0.19   1150.38     48.69      4.00
  TN1653               0.47   1150.38     49.13      4.00
  TN1654               0.47   1150.38     50.43      4.00
  TN1655               0.38   1150.39     51.30      4.00
  TN1656               0.09   1150.39     51.73      4.00
  TN1657               0.28   1150.39     53.03      4.00
  TN1658               0.38   1150.39     53.47      4.00
  TN1659               0.47   1150.40     54.33      4.00
  TN1660               0.57   1150.40     54.77      4.00
  TN1661               0.09   1150.42     55.21      4.00
  TN1662               0.09   1150.42     55.64      4.00
  TN1663               0.00   1150.42     56.08      4.00
  TN1664               0.47   1150.42     56.08      4.00
  IN1665               0.00   1150.48     47.44      3.54
  IN1666               0.00   1150.67     47.52      4.00
  IN1667               0.00   1150.47     55.67      4.00
  IN1668               0.00   1150.49     45.28      4.00
  IN1669               0.00   1150.48     53.07      4.00
  IN1670               0.00   1150.48     47.44      4.00
  IN1671               0.00   1150.47     47.87      4.00
  IN1672               0.00   1150.46     48.73      4.00
  IN1673               0.00   1150.46     49.59      4.00
  IN1674               0.00   1150.46     50.89      4.00
  IN1675               0.00   1150.45     53.93      4.00
  IN1676               0.00   1150.45     55.23      4.00
  IN1677               0.00   1150.45     55.66      4.00
  IN1678               0.00   1150.45     56.09      4.00
  IN1679               0.00   1150.45     56.53      4.00
  IN1680               0.00   1150.65     47.51      4.00
  IN1681               0.00   1150.60     47.92      4.00
  IN1682               0.00   1150.60     48.36      4.00
  IN1683               0.00   1150.57     49.64      4.00
  IN1684               0.00   1150.54     51.80      4.00
  IN1685               0.00   1150.52     53.52      4.00
  IN1686               0.00   1150.50     54.81      4.00
  IN1687               0.00   1150.48     55.24      4.00
  IN1688               0.00   1150.53     47.03      4.00
  IN1689               0.00   1150.53     47.46      4.00
  IN1690               0.00   1150.52     48.75      4.00
  IN1691               0.00   1150.52     50.05      4.00
  IN1692               0.00   1150.50     51.35      4.00
  IN1693               0.00   1150.49     52.64      4.00
  IN1694               0.00   1150.48     53.51      4.00
  IN1695               0.00   1150.48     53.94      4.00
  IN1696               0.00   1150.49     45.71      4.00
  IN1697               0.00   1150.49     46.14      4.00
  IN1698               0.00   1150.48     47.87      4.00
  IN1699               0.00   1150.48     49.17      4.00
  IN1700               0.00   1150.48     50.90      4.00
  IN1701               0.00   1150.48     51.77      4.00
  IN1702               0.00   1150.48     53.07      4.00
  IN1703               0.00   1150.48     53.07      4.00
  TN1704               0.19   1150.46     47.43      4.00
  TN1705               0.19   1150.46     47.43      4.00
  TN1706               0.47   1150.44     47.42      4.00
  TN1707               0.19   1150.46     47.43      4.00
  TN1708               0.00   1150.47     47.87      4.00
  TN1709               0.28   1150.44     47.86      4.00
  TN1710               0.28   1150.44     47.85      4.00
  TN1711               0.19   1150.45     47.86      4.00
  TN1712               0.38   1150.41     48.27      4.00
  TN1713               0.19   1150.44     48.72      4.00
  TN1715               0.09   1150.45     48.73      4.00
  TN1714               0.57   1150.41     48.71      4.00
  TN1716               0.19   1150.44     49.15      4.00
  TN1717               0.09   1150.45     50.02      4.00
  TN1719               0.19   1150.44     50.02      4.00
  TN1718               0.28   1150.44     49.59      4.00
  TN1720               0.28   1150.43     50.45      4.00
  TN1721               0.57   1150.40     51.30      4.00
  TN1722               0.19   1150.44     50.45      4.00
  TN1723               0.38   1150.41     53.48      4.00
  TN1726               0.28   1150.44     53.92      4.00
  TN1724               0.19   1150.43     52.18      4.00
  TN1725               0.47   1150.41     54.34      4.00
  TN1727               0.19   1150.44     54.79      4.00
  TN1728               0.09   1150.44     54.79      4.00
  TN1729               0.19   1150.44     55.22      4.00
  TN1732               0.38   1150.43     55.65      4.00
  TN1730               0.57   1150.40     55.64      4.00
  TN1731               0.19   1150.44     56.09      4.00
  TN1734               0.38   1150.43     56.08      4.00
  TN1735               0.09   1150.45     56.52      4.00
  TN1733               0.28   1150.43     56.08      4.00
  TN1738               0.28   1150.44     56.52      4.00
  TN1736               0.19   1150.43     56.52      4.00
  TN1737               0.19   1150.43     56.52      4.00
  TN1739               0.38   1150.62     47.50      4.00
  TN1740               0.09   1150.64     47.51      4.00
  TN1741               0.19   1150.63     47.50      4.00
  TN1742               0.19   1150.63     47.50      4.00
  TN1743               0.09   1150.60     47.92      4.00
  TN1744               0.00   1150.60     48.36      4.00
  TN1745               0.19   1150.59     47.92      4.00
  TN1746               0.47   1150.57     47.91      4.00
  TN1747               0.09   1150.60     48.35      4.00
  TN1748               0.19   1150.59     48.78      4.00
  TN1749               0.47   1150.57     48.34      4.00
  TN1750               0.47   1150.57     48.77      4.00
  TN1751               0.09   1150.56     49.21      4.00
  TN1752               0.09   1150.56     49.64      4.00
  TN1753               0.09   1150.56     49.64      4.00
  TN1754               0.38   1150.54     50.06      4.00
  TN1755               0.28   1150.52     51.79      4.00
  TN1756               0.47   1150.51     52.22      4.00
  TN1757               0.47   1150.50     50.91      4.00
  TN1758               0.38   1150.51     52.22      4.00
  TN1759               0.00   1150.52     53.09      4.00
  TN1760               0.57   1150.49     53.51      4.00
  TN1761               0.09   1150.51     53.52      4.00
  TN1762               0.19   1150.51     53.95      4.00
  TN1763               0.19   1150.48     54.37      4.00
  TN1764               0.38   1150.46     55.23      4.00
  TN1765               0.28   1150.48     54.80      4.00
  TN1766               0.09   1150.49     55.24      4.00
  TN1767               0.09   1150.47     55.23      4.00
  TN1768               0.57   1150.42     56.08      4.00
  TN1769               0.09   1150.47     55.67      4.00
  TN1770               0.28   1150.46     56.09      4.00
  TN1771               0.19   1150.53     47.03      4.00
  TN1772               0.09   1150.53     47.03      4.00
  TN1773               0.28   1150.53     47.03      4.00
  TN1774               0.00   1150.53     47.46      4.00
  TN1775               0.38   1150.53     47.03      4.00
  TN1776               0.38   1150.53     47.46      4.00
  TN1777               0.28   1150.53     47.46      4.00
  TN1778               0.09   1150.53     47.46      4.00
  TN1779               0.28   1150.52     48.32      4.00
  TN1780               0.09   1150.52     48.75      4.00
  TN1781               0.38   1150.52     47.89      4.00
  TN1782               0.09   1150.52     48.75      4.00
  TN1783               0.00   1150.52     49.62      4.00
  TN1784               0.09   1150.52     50.05      4.00
  TN1785               0.19   1150.52     49.62      4.00
  TN1786               0.09   1150.52     50.05      4.00
  TN1789               0.28   1150.50     50.91      4.00
  TN1790               0.28   1150.50     51.78      4.00
  TN1787               0.00   1150.50     50.91      4.00
  TN1788               0.47   1150.50     51.35      4.00
  TN1791               0.28   1150.49     52.21      4.00
  TN1792               0.19   1150.49     52.64      4.00
  TN1793               0.47   1150.49     52.64      4.00
  TN1794               0.19   1150.49     52.64      4.00
  TN1795               0.38   1150.48     53.07      4.00
  TN1796               0.09   1150.48     53.51      4.00
  TN1797               0.19   1150.48     53.51      4.00
  TN1798               0.38   1150.48     53.94      4.00
  TN1799               0.38   1150.48     53.94      4.00
  TN1800               0.47   1150.48     53.94      4.00
  TN1801               0.09   1150.48     54.37      4.00
  TN1802               0.28   1150.48     54.37      4.00
  TN1805               0.09   1150.49     45.71      4.00
  TN1803               0.19   1150.49     45.71      4.00
  TN1804               0.09   1150.49     45.71      4.00
  TN1806               0.19   1150.49     45.71      4.00
  TN1807               0.19   1150.49     45.71      4.00
  TN1808               0.09   1150.49     46.14      4.00
  TN1809               0.19   1150.49     46.14      4.00
  TN1810               0.09   1150.49     47.01      4.00
  TN1811               0.09   1150.48     47.44      4.00
  TN1812               0.09   1150.48     47.44      4.00
  TN1813               0.19   1150.48     47.44      4.00
  TN1814               0.00   1150.48     48.31      4.00
  TN1815               0.09   1150.48     48.74      4.00
  TN1816               0.09   1150.48     49.61      4.00
  TN1817               0.00   1150.48     48.74      4.00
  TN1818               0.00   1150.48     49.61      4.00
  TN1819               0.28   1150.48     50.47      4.00
  TN1820               0.19   1150.48     50.90      4.00
  TN1821               0.19   1150.48     50.47      4.00
  TN1822               0.47   1150.48     50.90      4.00
  TN1823               0.19   1150.48     51.77      4.00
  TN1824               0.09   1150.48     52.20      4.00
  TN1825               0.38   1150.48     51.77      4.00
  TN1826               0.09   1150.48     52.20      4.00
  TN1827               0.28   1150.48     52.64      4.00
  TN1828               0.38   1150.48     53.07      4.00
  TN1829               0.28   1150.48     52.64      4.00
  TN1830               0.09   1150.48     53.07      4.00
  TN1831               0.19   1150.48     53.07      4.00
  TN1832               0.19   1150.48     53.07      4.00
  TN1833               0.19   1150.48     53.07      4.00
  TN1834               0.38   1150.48     53.07      4.00
  Aquifer           -180.73    930.00      0.00      0.00  Reservoir
  SurfaceResrvr    -1107.06   1030.00      0.00      0.00  Reservoir
  Tank               633.02   1149.93     47.63      4.00  Tank
   
  Analysis ended Tue Sep 27 16:09:38 2022
