  Page 1                                    Wed Sep 28 22:08:59 2022

  ******************************************************************
  *                           E P A N E T                          *
  *                   Hydraulic and Water Quality                  *
  *                   Analysis for Pipe Networks                   *
  *                         Version 2.2                            *
  ******************************************************************
  
  Pipe	Map	Name:	Pipenet6.shp
  Node	Map	Name:	Epanmap.shp
  Mon	Jul	18	13:25:42	2005
   
      Input Data File ................... temp.inp
      Number of Junctions................ 1574
      Number of Reservoirs............... 2
      Number of Tanks ................... 1
      Number of Pipes ................... 1415
      Number of Pumps ................... 8
      Number of Valves .................. 196
      Headloss Formula .................. Darcy-Weisbach
      Nodal Demand Model ................ DDA
      Hydraulic Timestep ................ 1.00 hrs
      Hydraulic Accuracy ................ 0.001000
      Status Check Frequency ............ 2
      Maximum Trials Checked ............ 10
      Damping Limit Threshold ........... 0.000000
      Maximum Trials .................... 40
      Maximum Trials .................... 40
      Water Quality Time Step ........... 5.00 min
      Water Quality Tolerance ........... 0.01 hrs
      Specific Gravity .................. 1.00
      Relative Kinematic Viscosity ...... 1.00
      Relative Chemical Diffusivity ..... 1.00
      Demand Multiplier ................. 1.00
      Total Duration .................... 7.00 hrs
      Reporting Criteria:
         All Nodes
         No Links
   
  Analysis begun Wed Sep 28 22:08:59 2022

   
  Hydraulic Status:
  -----------------------------------------------------------------------
     0:00:00: Balanced after 37 trials
     0:00:00: Reservoir Aquifer is emptying
     0:00:00: Reservoir SurfaceResrvr is emptying
     0:00:00: Tank Tank is filling at 115.00 ft
   
     0:06:00: Pump HSP#1 changed by rule 7
     0:06:00: Balanced after 5 trials
     0:06:00: Reservoir Aquifer is closed
     0:06:00: Reservoir SurfaceResrvr is closed
     0:06:00: Tank Tank is emptying at 115.36 ft
     0:06:00: CV 1 changed from open to closed
     0:06:00: Pump HSP#1 changed from open to closed
   
  WARNING: Pump WellPump#1 closed because cannot deliver head at 0:06:00 hrs.
  WARNING: Pump WellPump#2 closed because cannot deliver head at 0:06:00 hrs.
  WARNING: Pump WellPump#3 closed because cannot deliver head at 0:06:00 hrs.
  WARNING: Pump WellPump#4 closed because cannot deliver head at 0:06:00 hrs.
  WARNING: Pump ResvrPump closed because cannot deliver head at 0:06:00 hrs.
   
     1:00:00: Balanced after 1 trials
   
  WARNING: Pump WellPump#1 closed because cannot deliver head at 1:00:00 hrs.
  WARNING: Pump WellPump#2 closed because cannot deliver head at 1:00:00 hrs.
  WARNING: Pump WellPump#3 closed because cannot deliver head at 1:00:00 hrs.
  WARNING: Pump WellPump#4 closed because cannot deliver head at 1:00:00 hrs.
   
     2:00:00: Balanced after 2 trials
   
  WARNING: Pump WellPump#1 closed because cannot deliver head at 2:00:00 hrs.
  WARNING: Pump WellPump#2 closed because cannot deliver head at 2:00:00 hrs.
  WARNING: Pump WellPump#3 closed because cannot deliver head at 2:00:00 hrs.
  WARNING: Pump WellPump#4 closed because cannot deliver head at 2:00:00 hrs.
   
     3:00:00: Balanced after 2 trials
   
  WARNING: Pump WellPump#1 closed because cannot deliver head at 3:00:00 hrs.
  WARNING: Pump WellPump#2 closed because cannot deliver head at 3:00:00 hrs.
  WARNING: Pump WellPump#3 closed because cannot deliver head at 3:00:00 hrs.
  WARNING: Pump WellPump#4 closed because cannot deliver head at 3:00:00 hrs.
   
     3:30:00: Pump HSP#3 changed by rule 6
     3:30:00: Balanced after 10 trials
     3:30:00: Reservoir Aquifer is emptying
     3:30:00: Reservoir SurfaceResrvr is emptying
     3:30:00: Tank Tank is filling at 109.98 ft
     3:30:00: CV 1 changed from closed to open
     3:30:00: Pump HSP#3 changed from closed to open
   
     3:36:00: Pump HSP#3 changed by rule 7
     3:36:00: Balanced after 6 trials
     3:36:00: Reservoir Aquifer is closed
     3:36:00: Reservoir SurfaceResrvr is closed
     3:36:00: Tank Tank is emptying at 110.33 ft
     3:36:00: CV 1 changed from open to closed
     3:36:00: Pump HSP#3 changed from open to closed
   
  WARNING: Pump WellPump#1 closed because cannot deliver head at 3:36:00 hrs.
  WARNING: Pump WellPump#2 closed because cannot deliver head at 3:36:00 hrs.
  WARNING: Pump WellPump#3 closed because cannot deliver head at 3:36:00 hrs.
  WARNING: Pump WellPump#4 closed because cannot deliver head at 3:36:00 hrs.
   
     3:48:00: Pump HSP#3 changed by rule 6
     3:48:00: Balanced after 10 trials
     3:48:00: Reservoir Aquifer is emptying
     3:48:00: Reservoir SurfaceResrvr is emptying
     3:48:00: Tank Tank is filling at 109.97 ft
     3:48:00: CV 1 changed from closed to open
     3:48:00: Pump HSP#3 changed from closed to open
   
     3:54:00: Pump HSP#3 changed by rule 7
     3:54:00: Balanced after 6 trials
     3:54:00: Reservoir Aquifer is closed
     3:54:00: Reservoir SurfaceResrvr is closed
     3:54:00: Tank Tank is emptying at 110.31 ft
     3:54:00: CV 1 changed from open to closed
     3:54:00: Pump HSP#3 changed from open to closed
   
  WARNING: Pump WellPump#1 closed because cannot deliver head at 3:54:00 hrs.
  WARNING: Pump WellPump#2 closed because cannot deliver head at 3:54:00 hrs.
  WARNING: Pump WellPump#3 closed because cannot deliver head at 3:54:00 hrs.
  WARNING: Pump WellPump#4 closed because cannot deliver head at 3:54:00 hrs.
  WARNING: Pump ResvrPump closed because cannot deliver head at 3:54:00 hrs.
   
     4:00:00: Balanced after 3 trials
   
  WARNING: Pump WellPump#1 closed because cannot deliver head at 4:00:00 hrs.
  WARNING: Pump WellPump#2 closed because cannot deliver head at 4:00:00 hrs.
  WARNING: Pump WellPump#3 closed because cannot deliver head at 4:00:00 hrs.
  WARNING: Pump WellPump#4 closed because cannot deliver head at 4:00:00 hrs.
  WARNING: Pump ResvrPump closed because cannot deliver head at 4:00:00 hrs.
   
     4:06:00: Pump HSP#3 changed by rule 6
     4:06:00: Balanced after 10 trials
     4:06:00: Reservoir Aquifer is emptying
     4:06:00: Reservoir SurfaceResrvr is emptying
     4:06:00: Tank Tank is filling at 109.91 ft
     4:06:00: CV 1 changed from closed to open
     4:06:00: Pump HSP#3 changed from closed to open
   
     4:12:00: Pump HSP#3 changed by rule 7
     4:12:00: Balanced after 5 trials
     4:12:00: Reservoir Aquifer is closed
     4:12:00: Reservoir SurfaceResrvr is closed
     4:12:00: Tank Tank is emptying at 110.21 ft
     4:12:00: CV 1 changed from open to closed
     4:12:00: Pump HSP#3 changed from open to closed
   
  WARNING: Pump WellPump#1 closed because cannot deliver head at 4:12:00 hrs.
  WARNING: Pump WellPump#2 closed because cannot deliver head at 4:12:00 hrs.
  WARNING: Pump WellPump#3 closed because cannot deliver head at 4:12:00 hrs.
  WARNING: Pump WellPump#4 closed because cannot deliver head at 4:12:00 hrs.
  WARNING: Pump ResvrPump closed because cannot deliver head at 4:12:00 hrs.
   
     4:18:00: Pump HSP#3 changed by rule 6
     4:18:00: Balanced after 10 trials
     4:18:00: Reservoir Aquifer is emptying
     4:18:00: Reservoir SurfaceResrvr is emptying
     4:18:00: Tank Tank is filling at 109.99 ft
     4:18:00: CV 1 changed from closed to open
     4:18:00: Pump HSP#3 changed from closed to open
   
     4:24:00: Pump HSP#3 changed by rule 7
     4:24:00: Balanced after 5 trials
     4:24:00: Reservoir Aquifer is closed
     4:24:00: Reservoir SurfaceResrvr is closed
     4:24:00: Tank Tank is emptying at 110.29 ft
     4:24:00: CV 1 changed from open to closed
     4:24:00: Pump HSP#3 changed from open to closed
   
  WARNING: Pump WellPump#1 closed because cannot deliver head at 4:24:00 hrs.
  WARNING: Pump WellPump#2 closed because cannot deliver head at 4:24:00 hrs.
  WARNING: Pump WellPump#3 closed because cannot deliver head at 4:24:00 hrs.
  WARNING: Pump WellPump#4 closed because cannot deliver head at 4:24:00 hrs.
  WARNING: Pump ResvrPump closed because cannot deliver head at 4:24:00 hrs.
   
     4:36:00: Pump HSP#3 changed by rule 6
     4:36:00: Balanced after 10 trials
     4:36:00: Reservoir Aquifer is emptying
     4:36:00: Reservoir SurfaceResrvr is emptying
     4:36:00: Tank Tank is filling at 109.84 ft
     4:36:00: CV 1 changed from closed to open
     4:36:00: Pump HSP#3 changed from closed to open
   
     4:42:00: Pump HSP#3 changed by rule 7
     4:42:00: Balanced after 5 trials
     4:42:00: Reservoir Aquifer is closed
     4:42:00: Reservoir SurfaceResrvr is closed
     4:42:00: Tank Tank is emptying at 110.14 ft
     4:42:00: CV 1 changed from open to closed
     4:42:00: Pump HSP#3 changed from open to closed
   
  WARNING: Pump WellPump#1 closed because cannot deliver head at 4:42:00 hrs.
  WARNING: Pump WellPump#2 closed because cannot deliver head at 4:42:00 hrs.
  WARNING: Pump WellPump#3 closed because cannot deliver head at 4:42:00 hrs.
  WARNING: Pump WellPump#4 closed because cannot deliver head at 4:42:00 hrs.
  WARNING: Pump ResvrPump closed because cannot deliver head at 4:42:00 hrs.
   
     4:48:00: Pump HSP#3 changed by rule 6
     4:48:00: Balanced after 10 trials
     4:48:00: Reservoir Aquifer is emptying
     4:48:00: Reservoir SurfaceResrvr is emptying
     4:48:00: Tank Tank is filling at 109.91 ft
     4:48:00: CV 1 changed from closed to open
     4:48:00: Pump HSP#3 changed from closed to open
   
     4:54:00: Pump HSP#3 changed by rule 7
     4:54:00: Balanced after 5 trials
     4:54:00: Reservoir Aquifer is closed
     4:54:00: Reservoir SurfaceResrvr is closed
     4:54:00: Tank Tank is emptying at 110.21 ft
     4:54:00: CV 1 changed from open to closed
     4:54:00: Pump HSP#3 changed from open to closed
   
  WARNING: Pump WellPump#1 closed because cannot deliver head at 4:54:00 hrs.
  WARNING: Pump WellPump#2 closed because cannot deliver head at 4:54:00 hrs.
  WARNING: Pump WellPump#3 closed because cannot deliver head at 4:54:00 hrs.
  WARNING: Pump WellPump#4 closed because cannot deliver head at 4:54:00 hrs.
  WARNING: Pump ResvrPump closed because cannot deliver head at 4:54:00 hrs.
   
     5:00:00: Pump HSP#3 changed by rule 6
     5:00:00: Balanced after 10 trials
     5:00:00: Reservoir Aquifer is emptying
     5:00:00: Reservoir SurfaceResrvr is emptying
     5:00:00: Tank Tank is filling at 109.99 ft
     5:00:00: CV 1 changed from closed to open
     5:00:00: Pump HSP#3 changed from closed to open
   
     5:06:00: Pump HSP#3 changed by rule 7
     5:06:00: Balanced after 5 trials
     5:06:00: Reservoir Aquifer is closed
     5:06:00: Reservoir SurfaceResrvr is closed
     5:06:00: Tank Tank is emptying at 110.24 ft
     5:06:00: CV 1 changed from open to closed
     5:06:00: Pump HSP#3 changed from open to closed
   
  WARNING: Pump WellPump#1 closed because cannot deliver head at 5:06:00 hrs.
  WARNING: Pump WellPump#2 closed because cannot deliver head at 5:06:00 hrs.
  WARNING: Pump WellPump#3 closed because cannot deliver head at 5:06:00 hrs.
  WARNING: Pump WellPump#4 closed because cannot deliver head at 5:06:00 hrs.
   
     5:12:00: Pump HSP#3 changed by rule 6
     5:12:00: Balanced after 17 trials
     5:12:00: Reservoir Aquifer is emptying
     5:12:00: Reservoir SurfaceResrvr is emptying
     5:12:00: Tank Tank is filling at 109.97 ft
     5:12:00: CV 1 changed from closed to open
     5:12:00: Pump HSP#3 changed from closed to open
   
     5:18:00: Pump HSP#3 changed by rule 7
     5:18:00: Balanced after 5 trials
     5:18:00: Reservoir Aquifer is closed
     5:18:00: Reservoir SurfaceResrvr is closed
     5:18:00: Tank Tank is emptying at 110.22 ft
     5:18:00: CV 1 changed from open to closed
     5:18:00: Pump HSP#3 changed from open to closed
   
  WARNING: Pump WellPump#1 closed because cannot deliver head at 5:18:00 hrs.
  WARNING: Pump WellPump#2 closed because cannot deliver head at 5:18:00 hrs.
  WARNING: Pump WellPump#3 closed because cannot deliver head at 5:18:00 hrs.
  WARNING: Pump WellPump#4 closed because cannot deliver head at 5:18:00 hrs.
  WARNING: Pump ResvrPump closed because cannot deliver head at 5:18:00 hrs.
   
     5:24:00: Pump HSP#3 changed by rule 6
     5:24:00: Balanced after 17 trials
     5:24:00: Reservoir Aquifer is emptying
     5:24:00: Reservoir SurfaceResrvr is emptying
     5:24:00: Tank Tank is filling at 109.95 ft
     5:24:00: CV 1 changed from closed to open
     5:24:00: Pump HSP#3 changed from closed to open
   
     5:30:00: Pump HSP#3 changed by rule 7
     5:30:00: Balanced after 5 trials
     5:30:00: Reservoir Aquifer is closed
     5:30:00: Reservoir SurfaceResrvr is closed
     5:30:00: Tank Tank is emptying at 110.20 ft
     5:30:00: CV 1 changed from open to closed
     5:30:00: Pump HSP#3 changed from open to closed
   
  WARNING: Pump WellPump#1 closed because cannot deliver head at 5:30:00 hrs.
  WARNING: Pump WellPump#2 closed because cannot deliver head at 5:30:00 hrs.
  WARNING: Pump WellPump#3 closed because cannot deliver head at 5:30:00 hrs.
  WARNING: Pump WellPump#4 closed because cannot deliver head at 5:30:00 hrs.
  WARNING: Pump ResvrPump closed because cannot deliver head at 5:30:00 hrs.
   
     5:36:00: Pump HSP#3 changed by rule 6
     5:36:00: Balanced after 17 trials
     5:36:00: Reservoir Aquifer is emptying
     5:36:00: Reservoir SurfaceResrvr is emptying
     5:36:00: Tank Tank is filling at 109.92 ft
     5:36:00: CV 1 changed from closed to open
     5:36:00: Pump HSP#3 changed from closed to open
   
     5:42:00: Pump HSP#3 changed by rule 7
     5:42:00: Balanced after 5 trials
     5:42:00: Reservoir Aquifer is closed
     5:42:00: Reservoir SurfaceResrvr is closed
     5:42:00: Tank Tank is emptying at 110.18 ft
     5:42:00: CV 1 changed from open to closed
     5:42:00: Pump HSP#3 changed from open to closed
   
  WARNING: Pump WellPump#1 closed because cannot deliver head at 5:42:00 hrs.
  WARNING: Pump WellPump#2 closed because cannot deliver head at 5:42:00 hrs.
  WARNING: Pump WellPump#3 closed because cannot deliver head at 5:42:00 hrs.
  WARNING: Pump WellPump#4 closed because cannot deliver head at 5:42:00 hrs.
   
     5:48:00: Pump HSP#3 changed by rule 6
     5:48:00: Balanced after 17 trials
     5:48:00: Reservoir Aquifer is emptying
     5:48:00: Reservoir SurfaceResrvr is emptying
     5:48:00: Tank Tank is filling at 109.90 ft
     5:48:00: CV 1 changed from closed to open
     5:48:00: Pump HSP#3 changed from closed to open
   
     5:54:00: Pump HSP#3 changed by rule 7
     5:54:00: Balanced after 5 trials
     5:54:00: Reservoir Aquifer is closed
     5:54:00: Reservoir SurfaceResrvr is closed
     5:54:00: Tank Tank is emptying at 110.15 ft
     5:54:00: CV 1 changed from open to closed
     5:54:00: Pump HSP#3 changed from open to closed
   
  WARNING: Pump WellPump#1 closed because cannot deliver head at 5:54:00 hrs.
  WARNING: Pump WellPump#2 closed because cannot deliver head at 5:54:00 hrs.
  WARNING: Pump WellPump#3 closed because cannot deliver head at 5:54:00 hrs.
  WARNING: Pump WellPump#4 closed because cannot deliver head at 5:54:00 hrs.
  WARNING: Pump ResvrPump closed because cannot deliver head at 5:54:00 hrs.
   
     6:00:00: Pump HSP#1 changed by rule 3
     6:00:00: Balanced after 17 trials
     6:00:00: Reservoir Aquifer is emptying
     6:00:00: Reservoir SurfaceResrvr is emptying
     6:00:00: Tank Tank is filling at 109.88 ft
     6:00:00: CV 1 changed from closed to open
     6:00:00: Pump HSP#1 changed from closed to open
   
     6:36:00: Pump HSP#1 changed by rule 4
     6:36:00: Balanced after 6 trials
     6:36:00: Reservoir Aquifer is closed
     6:36:00: Reservoir SurfaceResrvr is closed
     6:36:00: Tank Tank is emptying at 111.19 ft
     6:36:00: CV 1 changed from open to closed
     6:36:00: Pump HSP#1 changed from open to closed
   
  WARNING: Pump WellPump#1 closed because cannot deliver head at 6:36:00 hrs.
  WARNING: Pump WellPump#2 closed because cannot deliver head at 6:36:00 hrs.
  WARNING: Pump WellPump#3 closed because cannot deliver head at 6:36:00 hrs.
  WARNING: Pump WellPump#4 closed because cannot deliver head at 6:36:00 hrs.
  WARNING: Pump ResvrPump closed because cannot deliver head at 6:36:00 hrs.
   
     6:42:00: Pump HSP#1 changed by rule 3
     6:42:00: Balanced after 18 trials
     6:42:00: Reservoir Aquifer is emptying
     6:42:00: Reservoir SurfaceResrvr is emptying
     6:42:00: Tank Tank is filling at 110.88 ft
     6:42:00: CV 1 changed from closed to open
     6:42:00: Pump HSP#1 changed from closed to open
   
     6:48:00: Pump HSP#1 changed by rule 4
     6:48:00: Balanced after 6 trials
     6:48:00: Reservoir Aquifer is closed
     6:48:00: Reservoir SurfaceResrvr is closed
     6:48:00: Tank Tank is emptying at 111.10 ft
     6:48:00: CV 1 changed from open to closed
     6:48:00: Pump HSP#1 changed from open to closed
   
  WARNING: Pump WellPump#1 closed because cannot deliver head at 6:48:00 hrs.
  WARNING: Pump WellPump#2 closed because cannot deliver head at 6:48:00 hrs.
  WARNING: Pump WellPump#3 closed because cannot deliver head at 6:48:00 hrs.
  WARNING: Pump WellPump#4 closed because cannot deliver head at 6:48:00 hrs.
   
     6:54:00: Pump HSP#1 changed by rule 3
     6:54:00: Balanced after 18 trials
     6:54:00: Reservoir Aquifer is emptying
     6:54:00: Reservoir SurfaceResrvr is emptying
     6:54:00: Tank Tank is filling at 110.79 ft
     6:54:00: CV 1 changed from closed to open
     6:54:00: Pump HSP#1 changed from closed to open
   
     7:00:00: Pump HSP#1 changed by rule 4
     7:00:00: Balanced after 5 trials
     7:00:00: Reservoir Aquifer is closed
     7:00:00: Reservoir SurfaceResrvr is closed
     7:00:00: Tank Tank is emptying at 111.01 ft
     7:00:00: CV 1 changed from open to closed
     7:00:00: Pump HSP#1 changed from open to closed
   
  WARNING: Pump WellPump#1 closed because cannot deliver head at 7:00:00 hrs.
  WARNING: Pump WellPump#2 closed because cannot deliver head at 7:00:00 hrs.
  WARNING: Pump WellPump#3 closed because cannot deliver head at 7:00:00 hrs.
  WARNING: Pump WellPump#4 closed because cannot deliver head at 7:00:00 hrs.
  WARNING: Pump ResvrPump closed because cannot deliver head at 7:00:00 hrs.
   