  Page 1                                    Wed Sep 28 11:04:59 2022

  ******************************************************************
  *                           E P A N E T                          *
  *                   Hydraulic and Water Quality                  *
  *                   Analysis for Pipe Networks                   *
  *                         Version 2.2                            *
  ******************************************************************
  
  Pipe	Map	Name:	Pipenet6.shp
  Node	Map	Name:	Epanmap.shp
  Mon	Jul	18	13:25:42	2005
   
      Input Data File ................... temp.inp
      Number of Junctions................ 1574
      Number of Reservoirs............... 2
      Number of Tanks ................... 1
      Number of Pipes ................... 1415
      Number of Pumps ................... 8
      Number of Valves .................. 196
      Headloss Formula .................. Darcy-Weisbach
      Nodal Demand Model ................ DDA
      Hydraulic Timestep ................ 1.00 hrs
      Hydraulic Accuracy ................ 0.001000
      Status Check Frequency ............ 2
      Maximum Trials Checked ............ 10
      Damping Limit Threshold ........... 0.000000
      Maximum Trials .................... 40
      Maximum Trials .................... 40
      Water Quality Time Step ........... 5.00 min
      Water Quality Tolerance ........... 0.01 hrs
      Specific Gravity .................. 1.00
      Relative Kinematic Viscosity ...... 1.00
      Relative Chemical Diffusivity ..... 1.00
      Demand Multiplier ................. 1.00
      Total Duration .................... 6.00 hrs
      Reporting Criteria:
         All Nodes
         No Links
   
  Analysis begun Wed Sep 28 11:04:59 2022

   
  Hydraulic Status:
  -----------------------------------------------------------------------
     0:00:00: Balanced after 37 trials
     0:00:00: Reservoir Aquifer is emptying
     0:00:00: Reservoir SurfaceResrvr is emptying
     0:00:00: Tank Tank is filling at 115.00 ft
   
     0:06:00: Pump HSP#1 changed by rule 7
     0:06:00: Balanced after 5 trials
     0:06:00: Reservoir Aquifer is closed
     0:06:00: Reservoir SurfaceResrvr is closed
     0:06:00: Tank Tank is emptying at 115.35 ft
     0:06:00: CV 1 changed from open to closed
     0:06:00: Pump HSP#1 changed from open to closed
   
  WARNING: Pump WellPump#1 closed because cannot deliver head at 0:06:00 hrs.
  WARNING: Pump WellPump#2 closed because cannot deliver head at 0:06:00 hrs.
  WARNING: Pump WellPump#3 closed because cannot deliver head at 0:06:00 hrs.
  WARNING: Pump WellPump#4 closed because cannot deliver head at 0:06:00 hrs.
  WARNING: Pump ResvrPump closed because cannot deliver head at 0:06:00 hrs.
   
     1:00:00: Balanced after 1 trials
   
  WARNING: Pump WellPump#1 closed because cannot deliver head at 1:00:00 hrs.
  WARNING: Pump WellPump#2 closed because cannot deliver head at 1:00:00 hrs.
  WARNING: Pump WellPump#3 closed because cannot deliver head at 1:00:00 hrs.
  WARNING: Pump WellPump#4 closed because cannot deliver head at 1:00:00 hrs.
   
     2:00:00: Balanced after 2 trials
   
  WARNING: Pump WellPump#1 closed because cannot deliver head at 2:00:00 hrs.
  WARNING: Pump WellPump#2 closed because cannot deliver head at 2:00:00 hrs.
  WARNING: Pump WellPump#3 closed because cannot deliver head at 2:00:00 hrs.
  WARNING: Pump WellPump#4 closed because cannot deliver head at 2:00:00 hrs.
   
     3:00:00: Balanced after 2 trials
   
  WARNING: Pump WellPump#1 closed because cannot deliver head at 3:00:00 hrs.
  WARNING: Pump WellPump#2 closed because cannot deliver head at 3:00:00 hrs.
  WARNING: Pump WellPump#3 closed because cannot deliver head at 3:00:00 hrs.
  WARNING: Pump WellPump#4 closed because cannot deliver head at 3:00:00 hrs.
   
     3:12:00: Pump HSP#3 changed by rule 6
     3:12:00: Balanced after 11 trials
     3:12:00: Reservoir Aquifer is emptying
     3:12:00: Reservoir SurfaceResrvr is emptying
     3:12:00: Tank Tank is filling at 109.98 ft
     3:12:00: CV 1 changed from closed to open
     3:12:00: Pump HSP#3 changed from closed to open
   
     3:18:00: Pump HSP#3 changed by rule 7
     3:18:00: Balanced after 5 trials
     3:18:00: Reservoir Aquifer is closed
     3:18:00: Reservoir SurfaceResrvr is closed
     3:18:00: Tank Tank is emptying at 110.31 ft
     3:18:00: CV 1 changed from open to closed
     3:18:00: Pump HSP#3 changed from open to closed
   
  WARNING: Pump WellPump#1 closed because cannot deliver head at 3:18:00 hrs.
  WARNING: Pump WellPump#2 closed because cannot deliver head at 3:18:00 hrs.
  WARNING: Pump WellPump#3 closed because cannot deliver head at 3:18:00 hrs.
  WARNING: Pump WellPump#4 closed because cannot deliver head at 3:18:00 hrs.
  WARNING: Pump ResvrPump closed because cannot deliver head at 3:18:00 hrs.
   
     3:30:00: Pump HSP#3 changed by rule 6
     3:30:00: Balanced after 11 trials
     3:30:00: Reservoir Aquifer is emptying
     3:30:00: Reservoir SurfaceResrvr is emptying
     3:30:00: Tank Tank is filling at 109.91 ft
     3:30:00: CV 1 changed from closed to open
     3:30:00: Pump HSP#3 changed from closed to open
   
     3:36:00: Pump HSP#3 changed by rule 7
     3:36:00: Balanced after 5 trials
     3:36:00: Reservoir Aquifer is closed
     3:36:00: Reservoir SurfaceResrvr is closed
     3:36:00: Tank Tank is emptying at 110.23 ft
     3:36:00: CV 1 changed from open to closed
     3:36:00: Pump HSP#3 changed from open to closed
   
  WARNING: Pump WellPump#1 closed because cannot deliver head at 3:36:00 hrs.
  WARNING: Pump WellPump#2 closed because cannot deliver head at 3:36:00 hrs.
  WARNING: Pump WellPump#3 closed because cannot deliver head at 3:36:00 hrs.
  WARNING: Pump WellPump#4 closed because cannot deliver head at 3:36:00 hrs.
  WARNING: Pump ResvrPump closed because cannot deliver head at 3:36:00 hrs.
   
     3:48:00: Pump HSP#3 changed by rule 6
     3:48:00: Balanced after 11 trials
     3:48:00: Reservoir Aquifer is emptying
     3:48:00: Reservoir SurfaceResrvr is emptying
     3:48:00: Tank Tank is filling at 109.84 ft
     3:48:00: CV 1 changed from closed to open
     3:48:00: Pump HSP#3 changed from closed to open
   
     3:54:00: Pump HSP#3 changed by rule 7
     3:54:00: Balanced after 5 trials
     3:54:00: Reservoir Aquifer is closed
     3:54:00: Reservoir SurfaceResrvr is closed
     3:54:00: Tank Tank is emptying at 110.16 ft
     3:54:00: CV 1 changed from open to closed
     3:54:00: Pump HSP#3 changed from open to closed
   
  WARNING: Pump WellPump#1 closed because cannot deliver head at 3:54:00 hrs.
  WARNING: Pump WellPump#2 closed because cannot deliver head at 3:54:00 hrs.
  WARNING: Pump WellPump#3 closed because cannot deliver head at 3:54:00 hrs.
  WARNING: Pump WellPump#4 closed because cannot deliver head at 3:54:00 hrs.
  WARNING: Pump ResvrPump closed because cannot deliver head at 3:54:00 hrs.
   
     4:00:00: Pump HSP#3 changed by rule 6
     4:00:00: Balanced after 10 trials
     4:00:00: Reservoir Aquifer is emptying
     4:00:00: Reservoir SurfaceResrvr is emptying
     4:00:00: Tank Tank is filling at 109.96 ft
     4:00:00: CV 1 changed from closed to open
     4:00:00: Pump HSP#3 changed from closed to open
   
     4:06:00: Pump HSP#3 changed by rule 7
     4:06:00: Balanced after 5 trials
     4:06:00: Reservoir Aquifer is closed
     4:06:00: Reservoir SurfaceResrvr is closed
     4:06:00: Tank Tank is emptying at 110.24 ft
     4:06:00: CV 1 changed from open to closed
     4:06:00: Pump HSP#3 changed from open to closed
   
  WARNING: Pump WellPump#1 closed because cannot deliver head at 4:06:00 hrs.
  WARNING: Pump WellPump#2 closed because cannot deliver head at 4:06:00 hrs.
  WARNING: Pump WellPump#3 closed because cannot deliver head at 4:06:00 hrs.
  WARNING: Pump WellPump#4 closed because cannot deliver head at 4:06:00 hrs.
  WARNING: Pump ResvrPump closed because cannot deliver head at 4:06:00 hrs.
   
     4:12:00: Pump HSP#3 changed by rule 6
     4:12:00: Balanced after 10 trials
     4:12:00: Reservoir Aquifer is emptying
     4:12:00: Reservoir SurfaceResrvr is emptying
     4:12:00: Tank Tank is filling at 109.99 ft
     4:12:00: CV 1 changed from closed to open
     4:12:00: Pump HSP#3 changed from closed to open
   
     4:18:00: Pump HSP#3 changed by rule 7
     4:18:00: Balanced after 5 trials
     4:18:00: Reservoir Aquifer is closed
     4:18:00: Reservoir SurfaceResrvr is closed
     4:18:00: Tank Tank is emptying at 110.27 ft
     4:18:00: CV 1 changed from open to closed
     4:18:00: Pump HSP#3 changed from open to closed
   
  WARNING: Pump WellPump#1 closed because cannot deliver head at 4:18:00 hrs.
  WARNING: Pump WellPump#2 closed because cannot deliver head at 4:18:00 hrs.
  WARNING: Pump WellPump#3 closed because cannot deliver head at 4:18:00 hrs.
  WARNING: Pump WellPump#4 closed because cannot deliver head at 4:18:00 hrs.
  WARNING: Pump ResvrPump closed because cannot deliver head at 4:18:00 hrs.
   
     4:30:00: Pump HSP#3 changed by rule 6
     4:30:00: Balanced after 10 trials
     4:30:00: Reservoir Aquifer is emptying
     4:30:00: Reservoir SurfaceResrvr is emptying
     4:30:00: Tank Tank is filling at 109.77 ft
     4:30:00: CV 1 changed from closed to open
     4:30:00: Pump HSP#3 changed from closed to open
   
     4:36:00: Pump HSP#3 changed by rule 7
     4:36:00: Balanced after 5 trials
     4:36:00: Reservoir Aquifer is closed
     4:36:00: Reservoir SurfaceResrvr is closed
     4:36:00: Tank Tank is emptying at 110.04 ft
     4:36:00: CV 1 changed from open to closed
     4:36:00: Pump HSP#3 changed from open to closed
   
  WARNING: Pump WellPump#1 closed because cannot deliver head at 4:36:00 hrs.
  WARNING: Pump WellPump#2 closed because cannot deliver head at 4:36:00 hrs.
  WARNING: Pump WellPump#3 closed because cannot deliver head at 4:36:00 hrs.
  WARNING: Pump WellPump#4 closed because cannot deliver head at 4:36:00 hrs.
  WARNING: Pump ResvrPump closed because cannot deliver head at 4:36:00 hrs.
   
     4:42:00: Pump HSP#3 changed by rule 6
     4:42:00: Balanced after 10 trials
     4:42:00: Reservoir Aquifer is emptying
     4:42:00: Reservoir SurfaceResrvr is emptying
     4:42:00: Tank Tank is filling at 109.80 ft
     4:42:00: CV 1 changed from closed to open
     4:42:00: Pump HSP#3 changed from closed to open
   
     4:48:00: Pump HSP#3 changed by rule 7
     4:48:00: Balanced after 5 trials
     4:48:00: Reservoir Aquifer is closed
     4:48:00: Reservoir SurfaceResrvr is closed
     4:48:00: Tank Tank is emptying at 110.07 ft
     4:48:00: CV 1 changed from open to closed
     4:48:00: Pump HSP#3 changed from open to closed
   
  WARNING: Pump WellPump#1 closed because cannot deliver head at 4:48:00 hrs.
  WARNING: Pump WellPump#2 closed because cannot deliver head at 4:48:00 hrs.
  WARNING: Pump WellPump#3 closed because cannot deliver head at 4:48:00 hrs.
  WARNING: Pump WellPump#4 closed because cannot deliver head at 4:48:00 hrs.
   
     4:54:00: Pump HSP#3 changed by rule 6
     4:54:00: Balanced after 10 trials
     4:54:00: Reservoir Aquifer is emptying
     4:54:00: Reservoir SurfaceResrvr is emptying
     4:54:00: Tank Tank is filling at 109.82 ft
     4:54:00: CV 1 changed from closed to open
     4:54:00: Pump HSP#3 changed from closed to open
   
     5:00:00: Pump HSP#3 changed by rule 7
     5:00:00: Balanced after 5 trials
     5:00:00: Reservoir Aquifer is closed
     5:00:00: Reservoir SurfaceResrvr is closed
     5:00:00: Tank Tank is emptying at 110.10 ft
     5:00:00: CV 1 changed from open to closed
     5:00:00: Pump HSP#3 changed from open to closed
   
  WARNING: Pump WellPump#1 closed because cannot deliver head at 5:00:00 hrs.
  WARNING: Pump WellPump#2 closed because cannot deliver head at 5:00:00 hrs.
  WARNING: Pump WellPump#3 closed because cannot deliver head at 5:00:00 hrs.
  WARNING: Pump WellPump#4 closed because cannot deliver head at 5:00:00 hrs.
  WARNING: Pump ResvrPump closed because cannot deliver head at 5:00:00 hrs.
   
     5:06:00: Pump HSP#3 changed by rule 6
     5:06:00: Balanced after 17 trials
     5:06:00: Reservoir Aquifer is emptying
     5:06:00: Reservoir SurfaceResrvr is emptying
     5:06:00: Tank Tank is filling at 109.80 ft
     5:06:00: CV 1 changed from closed to open
     5:06:00: Pump HSP#3 changed from closed to open
   
     5:12:00: Pump HSP#3 changed by rule 7
     5:12:00: Balanced after 5 trials
     5:12:00: Reservoir Aquifer is closed
     5:12:00: Reservoir SurfaceResrvr is closed
     5:12:00: Tank Tank is emptying at 110.02 ft
     5:12:00: CV 1 changed from open to closed
     5:12:00: Pump HSP#3 changed from open to closed
   
  WARNING: Pump WellPump#1 closed because cannot deliver head at 5:12:00 hrs.
  WARNING: Pump WellPump#2 closed because cannot deliver head at 5:12:00 hrs.
  WARNING: Pump WellPump#3 closed because cannot deliver head at 5:12:00 hrs.
  WARNING: Pump WellPump#4 closed because cannot deliver head at 5:12:00 hrs.
  WARNING: Pump ResvrPump closed because cannot deliver head at 5:12:00 hrs.
   
     5:18:00: Pump HSP#3 changed by rule 6
     5:18:00: Balanced after 17 trials
     5:18:00: Reservoir Aquifer is emptying
     5:18:00: Reservoir SurfaceResrvr is emptying
     5:18:00: Tank Tank is filling at 109.72 ft
     5:18:00: CV 1 changed from closed to open
     5:18:00: Pump HSP#3 changed from closed to open
   
     5:30:00: Pump HSP#3 changed by rule 7
     5:30:00: Balanced after 5 trials
     5:30:00: Reservoir Aquifer is closed
     5:30:00: Reservoir SurfaceResrvr is closed
     5:30:00: Tank Tank is emptying at 110.17 ft
     5:30:00: CV 1 changed from open to closed
     5:30:00: Pump HSP#3 changed from open to closed
   
  WARNING: Pump WellPump#1 closed because cannot deliver head at 5:30:00 hrs.
  WARNING: Pump WellPump#2 closed because cannot deliver head at 5:30:00 hrs.
  WARNING: Pump WellPump#3 closed because cannot deliver head at 5:30:00 hrs.
  WARNING: Pump WellPump#4 closed because cannot deliver head at 5:30:00 hrs.
  WARNING: Pump ResvrPump closed because cannot deliver head at 5:30:00 hrs.
   
     5:36:00: Pump HSP#3 changed by rule 6
     5:36:00: Balanced after 17 trials
     5:36:00: Reservoir Aquifer is emptying
     5:36:00: Reservoir SurfaceResrvr is emptying
     5:36:00: Tank Tank is filling at 109.87 ft
     5:36:00: CV 1 changed from closed to open
     5:36:00: Pump HSP#3 changed from closed to open
   
     5:42:00: Pump HSP#3 changed by rule 7
     5:42:00: Balanced after 5 trials
     5:42:00: Reservoir Aquifer is closed
     5:42:00: Reservoir SurfaceResrvr is closed
     5:42:00: Tank Tank is emptying at 110.09 ft
     5:42:00: CV 1 changed from open to closed
     5:42:00: Pump HSP#3 changed from open to closed
   
  WARNING: Pump WellPump#1 closed because cannot deliver head at 5:42:00 hrs.
  WARNING: Pump WellPump#2 closed because cannot deliver head at 5:42:00 hrs.
  WARNING: Pump WellPump#3 closed because cannot deliver head at 5:42:00 hrs.
  WARNING: Pump WellPump#4 closed because cannot deliver head at 5:42:00 hrs.
  WARNING: Pump ResvrPump closed because cannot deliver head at 5:42:00 hrs.
   
     5:48:00: Pump HSP#3 changed by rule 6
     5:48:00: Balanced after 17 trials
     5:48:00: Reservoir Aquifer is emptying
     5:48:00: Reservoir SurfaceResrvr is emptying
     5:48:00: Tank Tank is filling at 109.79 ft
     5:48:00: CV 1 changed from closed to open
     5:48:00: Pump HSP#3 changed from closed to open
   
     5:54:00: Pump HSP#3 changed by rule 7
     5:54:00: Balanced after 5 trials
     5:54:00: Reservoir Aquifer is closed
     5:54:00: Reservoir SurfaceResrvr is closed
     5:54:00: Tank Tank is emptying at 110.01 ft
     5:54:00: CV 1 changed from open to closed
     5:54:00: Pump HSP#3 changed from open to closed
   
  WARNING: Pump WellPump#1 closed because cannot deliver head at 5:54:00 hrs.
  WARNING: Pump WellPump#2 closed because cannot deliver head at 5:54:00 hrs.
  WARNING: Pump WellPump#3 closed because cannot deliver head at 5:54:00 hrs.
  WARNING: Pump WellPump#4 closed because cannot deliver head at 5:54:00 hrs.
  WARNING: Pump ResvrPump closed because cannot deliver head at 5:54:00 hrs.
   
     6:00:00: Pump HSP#1 changed by rule 3
     6:00:00: Balanced after 17 trials
     6:00:00: Reservoir Aquifer is emptying
     6:00:00: Reservoir SurfaceResrvr is emptying
     6:00:00: Tank Tank is filling at 109.71 ft
     6:00:00: CV 1 changed from closed to open
     6:00:00: Pump HSP#1 changed from closed to open
   
  Water Quality Mass Balance (hrs)
  ================================
  Initial Mass:       0.00000e+00
  Mass Inflow:        0.00000e+00
  Mass Outflow:       6.37016e+04
  Mass Reacted:      -1.47939e+06
  Final Mass:         1.41569e+06
  Mass Ratio:         1.00000
  ================================

   
  Node Results at 0:00:00 hrs:
  --------------------------------------------------------
                     Demand      Head  Pressure       AGE
  Node                  gpm        ft       psi       hrs
  --------------------------------------------------------
  IN0                  0.00   1155.74     51.88      0.00
  TN1                  2.72   1155.74     51.88      0.00
  IN2                  0.00   1155.79     51.04      0.00
  TN3                  4.74   1155.78     51.47      0.00
  IN4                  0.00   1155.88     51.08      0.00
  TN5                  0.53   1155.88     51.08      0.00
  IN6                  0.00   1155.89     51.08      0.00
  TN7                  5.32   1155.89     51.08      0.00
  IN8                  0.00   1155.80     51.04      0.00
  TN9                  0.53   1155.80     51.04      0.00
  IN10                 0.00   1155.72     51.88      0.00
  TN11                 9.05   1155.71     51.87      0.00
  TN13                 0.54   1155.95     51.11      0.00
  TN15                 3.99   1155.94     51.10      0.00
  IN16                 0.00   1155.97     51.55      0.00
  TN17                 3.23   1155.97     51.55      0.00
  TN19                 6.46   1155.97     51.98      0.00
  TN21                 3.78   1156.00     55.03      0.00
  TN23                 6.79   1155.99     55.02      0.00
  TN25                 0.53   1156.05     57.22      0.00
  TN27                 9.48   1156.10     58.11      0.00
  TN29                 4.46   1156.12     58.98      0.00
  TN31                 0.28   1155.93     54.13      0.00
  TN33                 0.14   1155.94     52.40      0.00
  IN34                 0.00   1155.94     51.97      0.00
  TN35                 0.14   1155.93     51.97      0.00
  TN37                 0.00   1155.94     51.54      0.00
  TN39                 0.03   1155.94     51.54      0.00
  TN41                 0.07   1155.93     51.53      0.00
  TN43                 0.21   1155.93     51.53      0.00
  IN44                 0.00   1155.94     51.54      0.00
  TN45                 0.14   1155.93     51.53      0.00
  TN47                 0.34   1155.93     51.53      0.00
  TN49                 0.07   1155.96     51.98      0.00
  TN51                 0.14   1155.98     51.99      0.00
  IN52                 0.00   1155.99     52.43      0.00
  TN53                 0.07   1155.99     52.42      0.00
  TN55                 0.14   1156.01     53.30      0.00
  TN57                 0.07   1156.01     53.74      0.00
  IN58                 0.00   1156.05     55.92      0.00
  TN59                 0.21   1156.03     54.17      0.00
  TN61                 0.21   1156.03     55.91      0.00
  TN63                 0.28   1155.92     51.10      0.00
  IN64                 0.00   1155.95     51.54      0.00
  TN65                 0.07   1155.95     51.54      0.00
  TN67                 0.14   1155.96     51.54      0.00
  IN68                 0.00   1155.98     51.99      0.00
  TN69                 0.00   1155.98     51.99      0.00
  TN71                 0.07   1155.99     51.99      0.00
  IN72                 0.00   1156.01     52.43      0.00
  TN73                 0.28   1155.99     52.42      0.00
  IN74                 0.00   1156.02     53.30      0.00
  TN75                 0.07   1156.02     53.30      0.00
  TN77                 0.14   1156.03     54.18      0.00
  TN79                 0.14   1156.03     55.91      0.00
  IN80                 0.00   1156.08     57.23      0.00
  TN81                 0.14   1156.07     56.79      0.00
  TN83                 0.14   1156.06     57.66      0.00
  TN85                 0.14   1156.06     56.79      0.00
  TN87                 0.14   1156.06     57.66      0.00
  TN89                 0.14   1156.10     58.11      0.00
  IN90                 0.00   1156.11     58.98      0.00
  TN91                 0.00   1156.11     58.98      0.00
  TN93                 0.28   1156.09     58.10      0.00
  TN95                 0.14   1156.10     59.40      0.00
  TN97                 0.14   1156.14     59.85      0.00
  IN98                 0.00   1156.15     59.86      0.00
  TN99                 0.00   1156.15     60.29      0.00
  TN101                0.14   1156.13     59.85      0.00
  TN103                0.00   1156.15     60.29      0.00
  IN104                0.00   1156.19     60.74      0.00
  TN105                0.07   1156.18     60.74      0.00
  TN107                0.07   1156.18     60.74      0.00
  TN109                0.27   1156.17     61.17      0.00
  IN110                0.00   1155.95     53.71      0.00
  TN111                0.00   1155.95     52.41      0.00
  TN113                0.14   1155.94     53.70      0.00
  TN115                0.21   1155.93     51.53      0.00
  TN117                0.14   1155.93     51.97      0.00
  IN118                0.00   1155.94     51.10      0.00
  TN119                0.34   1155.91     51.09      0.00
  IN120                0.00   1155.94     51.54      0.00
  TN121                0.07   1155.94     51.54      0.00
  IN122                0.00   1155.94     51.10      0.00
  TN123                0.14   1155.93     51.10      0.00
  TN125                0.07   1156.23     57.73      0.00
  TN127                0.14   1156.22     57.29      0.00
  TN129                0.14   1156.22     56.86      0.00
  TN131                0.14   1156.22     57.29      0.00
  TN133                0.28   1156.21     56.85      0.00
  TN135                0.21   1156.16     55.97      0.00
  TN137                0.14   1156.17     55.97      0.00
  TN139                0.21   1156.17     55.54      0.00
  IN140                0.00   1156.16     54.66      0.00
  TN141                0.00   1156.16     55.10      0.00
  TN143                0.00   1156.16     54.66      0.00
  TN145                0.14   1156.14     52.49      0.00
  TN147                0.07   1156.10     52.04      0.00
  TN149                0.28   1156.07     54.19      0.00
  IN150                0.00   1156.11     52.04      0.00
  TN151                0.28   1156.08     51.60      0.00
  IN152                0.00   1156.05     51.15      0.00
  TN153                0.41   1156.00     51.13      0.00
  TN155                0.21   1156.03     51.14      0.00
  TN157                0.07   1156.04     50.71      0.00
  TN159                0.14   1156.09     51.60      0.00
  TN161                0.00   1156.05     50.72      0.00
  IN162                0.00   1156.04     50.28      0.00
  TN163                0.21   1156.01     50.27      0.00
  IN164                0.00   1156.05     50.72      0.00
  TN165                0.28   1156.03     50.71      0.00
  TN166                0.00   1156.04     50.28      0.00
  TN167                0.00   1156.04     50.28      0.00
  TN169                0.28   1155.76     50.16      0.00
  TN170                0.28   1155.76     50.16      0.00
  TN171                0.21   1155.77     50.16      0.00
  IN172                0.00   1156.09     50.30      0.00
  TN173                0.00   1156.09     50.30      0.00
  IN174                0.00   1156.07     50.29      0.00
  TN175                0.14   1156.06     50.29      0.00
  IN176                0.00   1155.93     50.23      0.00
  TN177                0.21   1155.92     50.23      0.00
  IN178                0.00   1155.95     50.24      0.00
  TN179                0.07   1155.95     50.24      0.00
  TN181                0.00   1155.53     50.06      0.00
  TN182                0.21   1155.51     50.05      0.00
  TN183                0.14   1155.52     50.49      0.00
  TN184                0.07   1155.52     50.49      0.00
  TN186                0.27   1155.27     50.38      0.00
  TN187                0.00   1155.30     50.82      0.00
  TN188                0.07   1155.29     50.39      0.00
  TN189                0.28   1155.27     50.81      0.00
  TN191                0.14   1162.30     53.43      0.00
  TN193                0.34   1162.28     53.42      0.00
  TN195                0.14   1161.02     52.44      0.00
  TN197                0.21   1159.22     51.66      0.00
  TN199                0.14   1159.22     51.66      0.00
  TN201                0.14   1158.36     51.29      0.00
  TN203                0.21   1157.10     50.74      0.00
  TN205                0.14   1157.16     50.76      0.00
  TN207                0.14   1157.11     50.74      0.00
  TN209                0.14   1157.11     50.74      0.00
  TN211                0.07   1156.97     50.68      0.00
  TN213                0.07   1156.97     51.12      0.00
  TN215                0.28   1156.96     51.11      0.00
  TN217                0.14   1157.01     50.70      0.00
  TN219                0.21   1156.82     51.05      0.00
  TN221                0.34   1156.81     51.91      0.00
  TN222                0.07   1156.84     51.49      0.00
  TN224                0.14   1156.88     51.08      0.00
  TN226                0.07   1156.77     52.33      0.00
  TN227                0.34   1156.75     52.75      0.00
  TN228                0.00   1156.78     52.77      0.00
  TN230                0.14   1156.83     51.92      0.00
  TN232                0.21   1156.68     53.59      0.00
  TN234                0.21   1156.68     54.02      0.00
  TN236                0.07   1156.69     54.46      0.00
  TN238                0.34   1156.58     55.71      0.00
  TN239                0.14   1156.59     54.85      0.00
  TN240                0.28   1156.58     55.71      0.00
  TN242                0.00   1156.54     56.56      0.00
  TN243                0.07   1156.53     56.99      0.00
  TN244                0.07   1156.53     57.43      0.00
  TN245                0.07   1157.13     50.32      0.00
  IN246                0.00   1157.13     50.32      0.00
  TN247                0.00   1157.13     50.32      0.00
  TN248                0.14   1157.12     50.75      0.00
  TN249                0.21   1157.12     50.75      0.00
  IN250                0.00   1157.03     50.71      0.00
  TN251                0.14   1157.02     50.70      0.00
  TN252                0.00   1157.03     50.71      0.00
  TN253                0.07   1157.02     50.71      0.00
  TN254                0.00   1157.03     50.71      0.00
  IN255                0.00   1156.93     51.10      0.00
  TN256                0.07   1156.92     51.09      0.00
  TN257                0.21   1156.91     51.09      0.00
  TN258                0.07   1156.92     51.53      0.00
  TN259                0.21   1156.91     51.09      0.00
  TN261                0.14   1156.81     53.65      0.00
  TN262                0.14   1156.81     52.35      0.00
  TN263                0.07   1156.82     51.92      0.00
  TN264                0.07   1156.82     52.35      0.00
  IN265                0.00   1156.73     54.48      0.00
  TN266                0.11   1156.72     54.91      0.00
  TN267                0.21   1156.71     54.47      0.00
  TN268                0.21   1156.71     54.90      0.00
  TN269                0.28   1156.70     54.03      0.00
  TN271                0.21   1156.62     56.16      0.00
  TN272                0.41   1156.60     56.59      0.00
  TN273                0.21   1156.62     55.73      0.00
  TN274                0.21   1156.62     55.73      0.00
  TN276                0.34   1156.22     59.03      0.00
  TN278                0.21   1156.25     59.47      0.00
  TN280                0.07   1156.26     59.48      0.00
  TN282                0.07   1156.25     59.04      0.00
  TN284                0.14   1156.25     59.04      0.00
  TN286                0.07   1156.25     58.17      0.00
  TN288                0.28   1156.20     58.15      0.00
  TN290                0.41   1156.44     57.38      0.00
  TN291                0.27   1156.44     59.12      0.00
  TN293                0.07   1156.44     59.12      0.00
  TN294                0.14   1156.44     59.12      0.00
  TN295                0.00   1156.45     59.12      0.00
  TN297                0.21   1156.42     59.11      0.00
  TN299                0.14   1156.43     59.55      0.00
  TN300                0.07   1156.44     59.55      0.00
  TN302                0.14   1156.59     57.02      0.00
  TN303                0.07   1156.60     57.45      0.00
  TN304                0.14   1156.59     57.02      0.00
  TN305                0.14   1156.59     56.59      0.00
  TN307                0.21   1156.57     57.01      0.00
  TN308                0.28   1156.56     57.87      0.00
  TN309                0.07   1156.59     57.88      0.00
  TN310                0.07   1156.58     57.02      0.00
  IN311                0.00   1156.63     56.17      0.00
  TN312                0.34   1156.59     56.15      0.00
  TN313                0.34   1156.60     56.59      0.00
  TN314                0.00   1156.63     56.17      0.00
  TN315                0.07   1156.63     56.17      0.00
  IN316                0.00   1156.64     56.17      0.00
  TN317                0.14   1156.62     56.17      0.00
  TN318                0.07   1156.63     56.60      0.00
  TN319                0.07   1156.63     56.17      0.00
  TN320                0.00   1156.64     55.74      0.00
  IN321                0.00   1156.64     55.31      0.00
  TN322                0.14   1156.63     55.30      0.00
  TN323                0.14   1156.63     55.30      0.00
  TN324                0.14   1156.63     54.87      0.00
  TN325                0.27   1156.62     54.86      0.00
  IN326                0.00   1156.65     54.01      0.00
  TN327                0.21   1156.63     54.00      0.00
  TN328                0.28   1156.62     54.43      0.00
  TN329                0.00   1156.65     53.58      0.00
  TN330                0.14   1156.64     53.57      0.00
  IN331                0.00   1156.66     52.28      0.00
  TN332                0.07   1156.65     52.28      0.00
  TN333                0.00   1156.66     52.71      0.00
  TN334                0.07   1156.65     51.84      0.00
  TN335                0.07   1156.65     51.85      0.00
  IN336                0.00   1156.66     50.98      0.00
  TN337                0.21   1156.65     50.98      0.00
  TN338                0.07   1156.66     51.41      0.00
  TN339                0.27   1156.64     50.98      0.00
  TN340                0.14   1156.65     50.55      0.00
  IN341                0.00   1156.67     50.12      0.00
  TN342                0.00   1156.67     50.12      0.00
  TN343                0.07   1156.66     50.55      0.00
  TN344                0.14   1156.66     49.68      0.00
  TN345                0.21   1156.65     49.25      0.00
  IN346                0.00   1156.68     48.82      0.00
  TN347                0.21   1156.66     49.25      0.00
  TN348                0.00   1156.68     48.82      0.00
  TN349                0.28   1156.66     48.81      0.00
  IN350                0.00   1156.68     48.83      0.00
  TN351                0.07   1156.68     48.82      0.00
  IN352                0.00   1156.68     48.39      0.00
  TN353                0.14   1156.67     48.39      0.00
  TN354                0.07   1156.67     48.39      0.00
  IN355                0.00   1156.67     48.82      0.00
  TN356                0.14   1156.66     48.81      0.00
  TN357                0.00   1156.67     48.82      0.00
  IN358                0.00   1156.67     49.25      0.00
  TN359                0.07   1156.66     49.25      0.00
  TN360                0.00   1156.67     50.55      0.00
  IN361                0.00   1156.66     51.85      0.00
  TN362                0.07   1156.66     51.41      0.00
  TN363                0.07   1156.65     52.28      0.00
  IN364                0.00   1156.66     53.58      0.00
  TN365                0.28   1156.63     53.57      0.00
  TN366                0.07   1156.65     54.01      0.00
  IN367                0.00   1156.65     54.88      0.00
  TN368                0.07   1156.64     54.44      0.00
  TN369                0.00   1156.65     55.31      0.00
  IN370                0.00   1156.65     55.74      0.00
  TN371                0.07   1156.64     55.74      0.00
  TN372                0.21   1156.62     56.17      0.00
  IN373                0.00   1156.64     56.17      0.00
  TN374                0.07   1156.63     56.17      0.00
  TN375                0.34   1156.60     56.15      0.00
  TN379                8.38   1161.61     50.96      0.00
  TN381                6.57   1161.66     51.41      0.00
  TN383                5.29   1161.71     52.74      0.00
  TN385                5.80   1161.72     53.17      0.00
  TN387                6.19   1161.64     50.97      0.00
  TN389                5.67   1161.66     51.41      0.00
  TN391                6.06   1161.66     52.28      0.00
  TN393                5.67   1161.70     52.73      0.00
  TN395               12.03   1158.34     49.11      0.00
  TN397               12.03   1158.33     49.54      0.00
  TN399               12.03   1158.35     49.98      0.00
  TN401               12.03   1158.41     51.31      0.00
  TN403               12.03   1158.33     49.54      0.00
  TN405               12.03   1158.40     50.00      0.00
  TN407               12.03   1158.40     50.44      0.00
  TN409               12.03   1158.52     51.36      0.00
  TN411                0.07   1156.37     54.76      0.00
  IN412                0.00   1156.38     56.06      0.00
  TN413                0.07   1156.37     55.62      0.00
  IN414                0.00   1156.36     54.75      0.00
  TN415                0.07   1156.36     54.32      0.00
  TN416                0.00   1156.36     54.75      0.00
  IN417                0.00   1156.34     53.44      0.00
  TN418                0.14   1156.33     52.14      0.00
  TN420                0.00   1156.34     52.14      0.00
  TN422                0.21   1156.30     52.13      0.00
  IN423                0.00   1156.32     52.57      0.00
  TN424                0.14   1156.31     52.13      0.00
  TN426                0.14   1156.29     52.12      0.00
  IN427                0.00   1156.31     52.56      0.00
  TN428                0.14   1156.29     52.12      0.00
  TN430                0.07   1156.28     53.42      0.00
  IN431                0.00   1156.29     53.42      0.00
  TN432                0.14   1156.28     53.85      0.00
  TN434                0.14   1156.27     54.28      0.00
  IN435                0.00   1156.29     54.29      0.00
  TN436                0.07   1156.28     54.72      0.00
  TN438                0.14   1156.27     55.15      0.00
  TN440                0.00   1156.29     55.59      0.00
  IN441                0.00   1156.27     61.21      0.00
  TN442                0.14   1156.26     61.21      0.00
  TN444                0.07   1156.27     61.64      0.00
  TN446                0.07   1156.27     61.21      0.00
  IN447                0.00   1156.28     61.21      0.00
  TN448                0.28   1156.25     61.20      0.00
  IN449                0.00   1156.28     59.92      0.00
  TN450                0.28   1156.25     60.77      0.00
  TN452                0.07   1156.27     59.91      0.00
  TN454                0.28   1156.25     59.04      0.00
  IN455                0.00   1156.28     58.18      0.00
  TN456                0.07   1156.27     58.18      0.00
  IN457                0.00   1156.28     53.42      0.00
  TN458               50.77   1153.47     53.93      0.00
  TN459               21.25   1151.55     53.10      0.00
  TN460               18.70   1152.55     53.10      0.00
  IN461                0.00   1160.16     57.26      0.00
  TN462                0.01   1160.16     57.70      0.00
  IN463                0.00   1160.14     57.26      0.00
  TN464                0.01   1160.14     57.26      0.00
  TN466                0.07   1159.17     57.70      0.00
  IN467                0.00   1159.29     58.19      0.00
  TN468                0.07   1159.29     58.19      0.00
  TN469                0.14   1159.17     57.27      0.00
  TN470                0.14   1159.29     58.19      0.00
  TN472                0.14   1159.14     58.12      0.00
  TN474                0.07   1158.71     57.94      0.00
  TN476                0.14   1158.28     57.75      0.00
  TN478                0.27   1159.14     58.12      0.00
  TN479                0.14   1158.71     57.94      0.00
  TN480                0.34   1158.28     57.75      0.00
  TN482                0.07   1157.84     57.56      0.00
  TN484                0.28   1157.27     56.88      0.00
  IN485                0.00   1156.89     56.28      0.00
  TN486                0.21   1156.89     56.71      0.00
  TN488                0.07   1156.54     56.13      0.00
  IN489                0.00   1156.21     55.12      0.00
  TN490                0.07   1156.21     55.12      0.00
  TN492                0.01   1157.27     56.88      0.00
  TN494                0.01   1156.54     55.26      0.00
  TN496                0.21   1164.39     59.53      0.00
  TN498                0.07   1168.53     61.76      0.00
  TN499                0.28   1164.39     59.53      0.00
  TN501                0.07   1168.71     61.84      0.00
  IN502                0.00   1164.74     60.55      0.00
  TN503                2.24   1164.73     60.55      0.00
  IN504                0.00   1163.81     60.14      0.00
  TN505                0.21   1163.81     60.14      0.00
  TN507                0.07   1168.27     62.08      0.00
  IN508                0.00   1160.33     58.64      0.00
  TN509                0.14   1160.32     58.64      0.00
  IN510                0.00   1160.20     58.58      0.00
  TN511                0.01   1160.20     58.58      0.00
  IN512                0.00   1159.96     55.88      0.00
  TN513                0.01   1159.96     56.31      0.00
  TN514                0.01   1159.96     55.88      0.00
  TN516                0.01   1165.33     58.64      0.00
  TN518                0.00   1187.20     68.98      0.00
  TN520                0.41   1197.69     73.53      0.00
  TN522                0.00   1205.50     76.91      0.00
  TN524                0.12   1213.79     80.94      0.00
  TN526                0.21   1221.65     84.34      0.00
  TN528                0.34   1185.57     67.84      0.00
  TN530                0.07   1167.97     59.35      0.00
  TN532                0.21   1155.14     53.36      0.00
  TN534                0.14   1155.14     51.19      0.00
  TN536                0.14   1214.18     80.67      0.00
  TN537                0.07   1214.18     81.11      0.00
  TN539                0.21   1185.57     67.41      0.00
  TN540                0.21   1185.57     68.27      0.00
  TN542                0.07   1159.37     53.02      0.00
  TN543                0.14   1159.36     53.02      0.00
  TN545                0.21   1159.21     54.69      0.00
  TN547                0.28   1159.20     53.82      0.00
  TN549                0.07   1159.29     53.42      0.00
  TN551                0.07   1159.10     55.51      0.00
  TN552                0.07   1159.10     55.07      0.00
  TN554                0.21   1159.05     56.78      0.00
  TN555                0.14   1159.05     56.78      0.00
  TN557                0.21   1160.17     55.10      0.00
  TN559                0.21   1160.18     55.97      0.00
  TN561                0.00   1160.21     57.29      0.00
  TN562                0.14   1160.18     54.24      0.00
  TN564                0.14   1160.19     55.11      0.00
  TN565                0.00   1160.21     55.99      0.00
  TN566                0.14   1160.20     57.28      0.00
  TN568                0.21   1161.44     56.95      0.00
  TN569                0.00   1161.47     56.96      0.00
  TN571                0.21   1161.04     57.21      0.00
  TN573                0.14   1161.31     56.90      0.00
  TN575                0.14   1161.06     56.36      0.00
  TN577                0.21   1159.28     49.52      0.00
  TN579                0.14   1159.33     49.97      0.00
  TN581                0.27   1159.36     50.85      0.00
  TN583                0.41   1159.39     51.30      0.00
  TN585                0.21   1159.28     49.95      0.00
  TN587                0.14   1159.37     51.29      0.00
  TN589                0.00   1159.43     52.18      0.00
  TN591                0.14   1160.14     52.49      0.00
  TN593                0.14   1160.15     53.36      0.00
  TN595                0.34   1160.15     54.23      0.00
  TN596                0.07   1160.14     51.62      0.00
  TN598                0.14   1160.16     52.93      0.00
  TN599                0.07   1160.18     53.38      0.00
  TN601                0.07   1160.89     56.28      0.00
  TN603                0.34   1160.78     55.37      0.00
  TN605                0.07   1160.74     54.05      0.00
  TN607                0.07   1160.74     53.18      0.00
  TN609                0.21   1160.79     56.24      0.00
  TN610                0.07   1160.89     56.71      0.00
  TN612                0.00   1252.83     96.99      0.00
  TN614                0.07   1234.28     88.51      0.00
  TN616                0.14   1217.98     81.02      0.00
  TN618                0.07   1203.65     73.94      0.00
  TN620                0.21   1160.86     54.10      0.00
  TN622                0.28   1160.95     56.31      0.00
  TN624                0.00   1161.70     57.07      0.00
  TN626                0.14   1160.83     54.09      0.00
  TN628                0.07   1160.99     55.89      0.00
  TN630                0.21   1163.68     57.06      0.00
  TN632                0.00   1160.83     45.86      0.00
  TN634                0.21   1160.83     50.62      0.00
  TN636                0.28   1160.83     53.66      0.00
  TN638                0.34   1160.99     54.16      0.00
  TN640                0.07   1160.99     55.46      0.00
  TN642                0.34   1163.68     55.32      0.00
  TN644                0.21   1163.68     56.62      0.00
  TN646                0.21   1163.68     55.76      0.00
  TN648                0.00   1163.68     56.62      0.00
  TN650                0.07   1163.68     56.62      0.00
  TN652                0.07   1163.68     57.06      0.00
  TN654                0.21   1163.68     57.06      0.00
  TN656                0.21   1163.68     57.92      0.00
  TN658                0.34   1163.68     57.92      0.00
  VN659                0.00   1163.68     57.92      0.00
  TN660                0.07   1163.68     57.92      0.00
  TN662                0.07   1328.77    128.59      0.00
  TN664                0.28   1328.31    128.82      0.00
  VN665                0.00   1327.81    128.61      0.00
  TN666                0.14   1327.81    128.61      0.00
  TN668                0.27   1327.41    128.87      0.00
  TN670                0.14   1327.12    128.74      0.00
  TN672                0.14   1326.79    128.60      0.00
  TN674                0.14   1326.52    128.48      0.00
  TN676                0.07   1326.23    128.79      0.00
  TN678                0.07   1270.93    104.40      0.00
  TN679                0.07   1327.12    128.31      0.00
  TN681                0.21   1327.95    128.23      0.00
  TN683                0.07   1328.60    128.08      0.00
  TN685                1.76   1159.27     46.05      0.00
  TN687                0.98   1159.28     46.48      0.00
  TN689                0.14   1159.27     47.34      0.00
  TN691                0.07   1159.27     47.78      0.00
  TN693                0.07   1159.27     48.65      0.00
  TN695                0.21   1159.26     49.07      0.00
  TN697                0.00   1158.62     46.63      0.00
  TN699                0.07   1158.62     46.63      0.00
  TN701                0.21   1158.61     46.63      0.00
  TN703                0.21   1158.60     47.06      0.00
  TN705                0.14   1158.62     47.06      0.00
  TN707                0.07   1158.62     47.50      0.00
  TN709                0.28   1158.60     50.09      0.00
  TN711                0.14   1158.61     50.96      0.00
  TN713                0.07   1159.27     47.78      0.00
  TN715                0.28   1159.25     49.07      0.00
  TN717                0.14   1158.60     51.39      0.00
  TN719                0.00   1158.61     52.26      0.00
  TN721                0.07   1158.60     52.69      0.00
  TN723                0.00   1158.59     53.55      0.00
  TN725                0.21   1158.47     55.23      0.00
  IN726                0.00   1158.32     55.60      0.00
  TN727                0.21   1158.30     55.59      0.00
  TN729                0.14   1158.13     57.25      0.00
  TN731                0.14   1157.94     57.17      0.00
  TN733                0.14   1157.76     57.53      0.00
  TN735                0.07   1157.58     57.45      0.00
  TN737                0.14   1157.36     57.35      0.00
  TN739                0.14   1157.04     58.08      0.00
  TN741                0.00   1156.88     57.14      0.00
  TN743                0.07   1156.66     56.62      0.00
  TN745                0.07   1156.48     56.10      0.00
  TN747                0.00   1160.14     45.99      0.00
  TN749                0.00   1160.14     46.86      0.00
  TN751                0.07   1160.13     47.72      0.00
  TN753                0.07   1160.13     50.32      0.00
  TN755                0.00   1160.72     51.44      0.00
  TN757                0.07   1160.71     52.30      0.00
  TN759                0.07   1160.71     51.00      0.00
  TN761                0.14   1160.70     50.13      0.00
  TN763                0.28   1160.69     49.69      0.00
  TN765                0.21   1160.69     49.26      0.00
  TN767                0.21   1160.81     52.78      0.00
  TN769                0.00   1160.83     51.49      0.00
  TN771                0.28   1160.80     50.61      0.00
  TN773                0.21   1160.80     49.31      0.00
  TN775                0.14   1160.80     49.31      0.00
  TN777                0.21   1160.80     52.77      0.00
  TN779                0.14   1160.82     48.02      0.00
  TN781                0.07   1160.71     47.97      0.00
  TN783                0.07   1160.71     47.10      0.00
  TN785                0.21   1160.68     46.66      0.00
  TN787                0.00   1160.72     46.24      0.00
  TN789                0.07   1160.71     47.54      0.00
  TN791                0.07   1160.82     45.42      0.00
  TN793                0.21   1160.77     46.70      0.00
  TN795                0.14   1160.81     46.28      0.00
  TN797                0.14   1160.82     46.72      0.00
  TN799                0.07   1156.23     58.16      0.00
  TN801                0.21   1156.44     58.25      0.00
  TN802                0.00   1160.95     56.74      0.00
  TN804                0.21   1160.88     55.84      0.00
  TN805                0.07   1160.85     54.53      0.00
  TN807                0.21   1163.07     57.66      0.00
  TN808                0.07   1252.82     96.12      0.00
  TN810                0.28   1270.89    104.81      0.00
  TN812                0.07   1185.20     63.78      0.00
  TN814                8.45   1223.89     81.41      0.00
  TN816                6.41   1190.22     64.22      0.00
  VN817                0.00   1160.19     58.58      0.00
  VN818                0.00   1160.19     58.58      0.00
  VN819                0.00   1160.19     57.71      0.00
  VN820                0.00   1160.19     57.71      0.00
  VN822                0.00   1160.01     56.33      0.00
  VN823                0.00   1160.01     56.33      0.00
  IN824                0.00   1165.33     58.21      0.00
  IN825                0.00   1167.97     59.78      0.00
  VN826                0.00   1168.81     60.15      0.00
  VN827                0.00   1168.81     60.15      0.00
  IN828                0.00   1185.57     67.84      0.00
  VN829                0.00   1187.00     68.46      0.00
  VN830                0.00   1187.00     68.46      0.00
  IN831                0.00   1187.20     68.55      0.00
  IN832                0.00   1156.54     55.70      0.00
  VN833                0.00   1156.54     55.26      0.00
  VN834                0.00   1156.54     55.26      0.00
  IN835                0.00   1155.69     53.16      0.00
  VN836                0.00   1155.70     53.17      0.00
  VN837                0.00   1155.70     53.17      0.00
  VN838                0.00   1155.75     51.45      0.00
  VN839                0.00   1155.75     51.45      0.00
  IN840                0.00   1155.77     51.03      0.00
  VN841                0.00   1155.84     51.06      0.00
  VN842                0.00   1155.84     51.06      0.00
  VN843                0.00   1155.92     51.09      0.00
  VN844                0.00   1155.92     51.09      0.00
  IN845                0.00   1155.93     51.10      0.00
  VN846                0.00   1155.93     51.10      0.00
  VN847                0.00   1155.93     51.10      0.00
  IN848                0.00   1155.94     51.10      0.00
  IN849                0.00   1155.95     51.11      0.00
  VN850                0.00   1155.95     51.54      0.00
  VN851                0.00   1155.95     51.54      0.00
  IN852                0.00   1155.97     51.55      0.00
  IN853                0.00   1155.98     51.55      0.00
  VN854                0.00   1155.98     51.99      0.00
  VN855                0.00   1155.98     51.99      0.00
  VN856                0.00   1155.99     54.59      0.00
  VN857                0.00   1155.99     54.59      0.00
  IN858                0.00   1155.99     55.03      0.00
  IN859                0.00   1156.00     55.03      0.00
  VN860                0.00   1156.03     56.34      0.00
  VN861                0.00   1156.03     56.34      0.00
  IN862                0.00   1156.05     57.22      0.00
  VN863                0.00   1156.08     57.66      0.00
  IN864                0.00   1156.11     58.11      0.00
  IN865                0.00   1156.13     58.98      0.00
  VN866                0.00   1156.14     58.99      0.00
  VN867                0.00   1156.08     57.66      0.00
  VN868                0.00   1155.93     51.10      0.00
  IN869                0.00   1155.13     51.18      0.00
  VN870                0.00   1155.14     51.62      0.00
  VN871                0.00   1155.14     51.62      0.00
  IN872                0.00   1155.14     51.62      0.00
  VN873                0.00   1155.14     52.92      0.00
  VN874                0.00   1155.14     52.92      0.00
  IN875                0.00   1155.14     53.36      0.00
  IN876                0.00   1194.24     72.03      0.00
  IN877                0.00   1197.69     73.53      0.00
  IN878                0.00   1205.50     76.91      0.00
  VN879                0.00   1207.37     77.72      0.00
  VN880                0.00   1207.37     77.72      0.00
  IN881                0.00   1213.79     80.50      0.00
  IN882                0.00   1219.08     83.23      0.00
  IN883                0.00   1221.65     84.34      0.00
  VN884                0.00   1224.19     85.44      0.00
  VN885                0.00   1224.19     85.44      0.00
  IN886                0.00   1226.47     86.43      0.00
  IN887                0.00   1224.30     85.49      0.00
  VN888                0.00   1220.48     83.84      0.00
  VN889                0.00   1220.48     83.84      0.00
  IN890                0.00   1214.18     80.67      0.00
  IN891                0.00   1185.57     67.41      0.00
  IN892                0.00   1161.47     56.96      0.00
  IN893                0.00   1160.21     57.29      0.00
  VN894                0.00   1164.04     59.38      0.00
  VN895                0.00   1164.04     59.38      0.00
  IN896                0.00   1164.39     59.53      0.00
  IN897                0.00   1168.53     61.76      0.00
  IN898                0.00   1168.71     61.84      0.00
  IN901                0.00   1170.06     62.86      0.00
  VN902                0.00   1169.25     62.50      0.00
  VN903                0.00   1169.25     62.50      0.00
  IN904                0.00   1168.27     62.08      0.00
  VN905                0.00   1162.41     59.54      0.00
  VN906                0.00   1162.41     59.54      0.00
  VN907                0.00   1157.27     56.88      0.00
  IN908                0.00   1157.84     57.56      0.00
  VN909                0.00   1158.00     57.63      0.00
  VN910                0.00   1158.00     57.63      0.00
  IN911                0.00   1158.28     57.75      0.00
  VN912                0.00   1158.68     57.92      0.00
  VN913                0.00   1158.68     57.92      0.00
  IN914                0.00   1158.71     57.94      0.00
  IN915                0.00   1159.14     58.12      0.00
  IN916                0.00   1159.36     58.22      0.00
  IN917                0.00   1159.17     57.27      0.00
  VN918                0.00   1159.16     57.27      0.00
  VN919                0.00   1159.16     57.27      0.00
  IN920                0.00   1159.06     56.79      0.00
  VN921                0.00   1158.05     57.22      0.00
  VN922                0.00   1159.21     58.15      0.00
  VN923                0.00   1159.21     58.15      0.00
  VN924                0.00   1159.99     58.49      0.00
  VN925                0.00   1159.99     58.49      0.00
  VN926                0.00   1164.89     60.61      0.00
  VN927                0.00   1164.89     60.61      0.00
  VN928                0.00   1175.27     64.68      0.00
  VN929                0.00   1175.27     64.68      0.00
  VN930                0.00   1226.46     86.86      0.00
  VN931                0.00   1226.46     86.86      0.00
  VN932                0.00   1268.45    104.62      0.00
  VN933                0.00   1170.65     57.04      0.00
  IN934                0.00   1162.32     53.43      0.00
  IN935                0.00   1158.38     51.29      0.00
  IN936                0.00   1157.20     50.78      0.00
  IN937                0.00   1157.17     50.77      0.00
  IN938                0.00   1157.12     50.75      0.00
  IN939                0.00   1157.02     50.70      0.00
  VN940                0.00   1157.01     50.70      0.00
  VN941                0.00   1157.01     50.70      0.00
  IN942                0.00   1156.98     50.69      0.00
  IN943                0.00   1156.92     51.09      0.00
  IN944                0.00   1156.89     51.08      0.00
  IN945                0.00   1156.84     51.50      0.00
  VN946                0.00   1156.84     51.49      0.00
  VN947                0.00   1156.84     51.49      0.00
  IN948                0.00   1156.84     51.93      0.00
  IN949                0.00   1156.78     52.77      0.00
  VN950                0.00   1156.75     52.75      0.00
  VN951                0.00   1156.75     52.75      0.00
  IN953                0.00   1156.70     54.03      0.00
  IN954                0.00   1156.60     55.29      0.00
  VN955                0.00   1156.60     55.29      0.00
  VN956                0.00   1156.60     55.29      0.00
  IN957                0.00   1156.54     56.99      0.00
  IN958                0.00   1156.47     57.40      0.00
  VN959                0.00   1156.46     58.26      0.00
  VN960                0.00   1156.26     58.17      0.00
  IN961                0.00   1156.24     58.16      0.00
  VN962                0.00   1156.24     56.86      0.00
  VN963                0.00   1156.24     56.86      0.00
  IN964                0.00   1156.19     55.98      0.00
  VN966                0.00   1156.15     54.66      0.00
  VN967                0.00   1156.15     54.66      0.00
  VN969                0.00   1156.08     51.16      0.00
  VN970                0.00   1156.05     50.72      0.00
  VN971                0.00   1156.05     50.72      0.00
  IN973                0.00   1155.99     50.26      0.00
  IN974                0.00   1155.79     50.17      0.00
  VN975                0.00   1155.78     50.17      0.00
  VN976                0.00   1155.78     50.17      0.00
  IN978                0.00   1155.53     50.49      0.00
  VN979                0.00   1155.51     50.48      0.00
  VN980                0.00   1155.51     50.48      0.00
  IN981                0.00   1155.30     50.82      0.00
  VN982                0.00   1155.24     50.80      0.00
  VN983                0.00   1155.24     50.80      0.00
  VN984                0.00   1156.61     56.16      0.00
  IN985                0.00   1156.64     55.74      0.00
  IN986                0.00   1156.83     52.79      0.00
  VN987                0.00   1156.86     51.93      0.00
  VN988                0.00   1156.86     51.93      0.00
  VN989                0.00   1156.97     51.12      0.00
  VN990                0.00   1156.97     51.12      0.00
  VN991                0.00   1157.10     50.74      0.00
  VN992                0.00   1157.10     50.74      0.00
  VN993                0.00   1157.19     50.34      0.00
  VN994                0.00   1157.19     50.34      0.00
  IN995                0.00   1157.20     50.35      0.00
  IN996                0.00   1156.69     48.83      0.00
  VN997                0.00   1156.04     50.28      0.00
  VN998                0.00   1156.04     50.28      0.00
  VN999                0.00   1156.17     60.30      0.00
  VN1000               0.00   1156.17     60.30      0.00
  VN1001               0.00   1156.11     58.98      0.00
  VN1002               0.00   1156.11     58.98      0.00
  VN1003               0.00   1156.07     56.79      0.00
  VN1004               0.00   1156.07     56.79      0.00
  VN1005               0.00   1156.03     53.74      0.00
  VN1006               0.00   1156.03     53.74      0.00
  VN1009               0.00   1156.00     52.43      0.00
  VN1010               0.00   1156.00     52.43      0.00
  VN1013               0.00   1155.97     51.55      0.00
  VN1014               0.00   1155.97     51.55      0.00
  VN1015               0.00   1155.94     51.10      0.00
  VN1016               0.00   1155.94     51.10      0.00
  IN1017               0.00   1155.94     51.10      0.00
  VN1018               0.00   1155.94     51.54      0.00
  VN1019               0.00   1155.94     51.54      0.00
  VN1020               0.00   1155.95     51.97      0.00
  VN1021               0.00   1155.95     51.97      0.00
  VN1022               0.00   1155.96     54.14      0.00
  VN1023               0.00   1155.93     51.10      0.00
  IN1024               0.00   1161.46     56.96      0.00
  IN1025               0.00   1161.46     56.96      0.00
  VN1026               0.00   1161.42     56.94      0.00
  VN1027               0.00   1161.42     56.94      0.00
  IN1028               0.00   1161.35     56.91      0.00
  IN1029               0.00   1161.09     56.80      0.00
  IN1030               0.00   1160.94     56.74      0.00
  IN1031               0.00   1160.94     56.74      0.00
  IN1032               0.00   1160.20     54.25      0.00
  IN1033               0.00   1160.20     54.25      0.00
  VN1034               0.00   1160.20     54.25      0.00
  VN1035               0.00   1160.20     54.25      0.00
  IN1036               0.00   1160.20     55.12      0.00
  IN1037               0.00   1160.20     55.55      0.00
  IN1038               0.00   1160.21     55.99      0.00
  IN1039               0.00   1160.21     56.42      0.00
  IN1040               0.00   1160.21     56.42      0.00
  VN1042               0.00   1160.21     57.29      0.00
  VN1043               0.00   1160.21     57.29      0.00
  IN1044               0.00   1159.06     55.49      0.00
  VN1045               0.00   1159.09     55.50      0.00
  VN1046               0.00   1159.09     55.50      0.00
  IN1047               0.00   1159.11     55.51      0.00
  IN1048               0.00   1159.23     54.70      0.00
  IN1049               0.00   1159.30     53.86      0.00
  IN1050               0.00   1159.38     52.59      0.00
  IN1051               0.00   1159.44     52.19      0.00
  VN1052               0.00   1159.44     52.19      0.00
  VN1053               0.00   1158.92     55.43      0.00
  VN1054               0.00   1159.12     55.51      0.00
  VN1055               0.00   1159.12     55.51      0.00
  VN1056               0.00   1159.67     57.05      0.00
  VN1057               0.00   1159.67     57.05      0.00
  VN1058               0.00   1160.26     56.44      0.00
  VN1059               0.00   1160.26     56.44      0.00
  VN1060               0.00   1161.61     57.03      0.00
  VN1061               0.00   1161.61     57.03      0.00
  IN1062               0.00   1163.68     57.92      0.00
  VN1063               0.00   1159.44     52.19      0.00
  VN1064               0.00   1160.23     54.26      0.00
  VN1065               0.00   1160.23     54.26      0.00
  IN1066               0.00   1160.99     56.76      0.00
  VN1067               0.00   1160.83     53.66      0.00
  IN1068               0.00   1160.83     53.66      0.00
  IN1069               0.00   1160.86     54.53      0.00
  IN1070               0.00   1160.91     55.86      0.00
  VN1071               0.00   1160.92     55.86      0.00
  VN1072               0.00   1160.92     55.86      0.00
  IN1073               0.00   1160.95     56.31      0.00
  VN1074               0.00   1160.98     56.75      0.00
  VN1075               0.00   1160.98     56.75      0.00
  IN1076               0.00   1161.70     57.07      0.00
  IN1077               0.00   1163.11     57.68      0.00
  VN1078               0.00   1173.14     62.02      0.00
  VN1079               0.00   1173.14     62.02      0.00
  IN1080               0.00   1279.95    108.74      0.00
  IN1081               0.00   1270.93    104.83      0.00
  VN1082               0.00   1256.98     98.35      0.00
  VN1083               0.00   1256.98     98.35      0.00
  IN1084               0.00   1252.83     96.55      0.00
  IN1085               0.00   1242.98     92.28      0.00
  IN1086               0.00   1234.29     88.52      0.00
  VN1087               0.00   1233.55     88.20      0.00
  VN1088               0.00   1233.55     88.20      0.00
  IN1089               0.00   1225.12     84.11      0.00
  IN1090               0.00   1218.00     80.59      0.00
  VN1091               0.00   1214.04     78.88      0.00
  VN1092               0.00   1214.04     78.88      0.00
  IN1093               0.00   1209.41     75.57      0.00
  IN1094               0.00   1203.66     72.21      0.00
  VN1095               0.00   1191.44     66.92      0.00
  VN1096               0.00   1191.44     66.92      0.00
  IN1097               0.00   1191.00     66.29      0.00
  IN1098               0.00   1185.22     63.79      0.00
  IN1099               0.00   1175.33     59.07      0.00
  VN1101               0.00   1170.65     57.04      0.00
  IN1102               0.00   1160.90     56.28      0.00
  VN1103               0.00   1160.83     55.82      0.00
  VN1104               0.00   1160.83     55.82      0.00
  IN1105               0.00   1160.83     55.82      0.00
  IN1106               0.00   1160.75     54.49      0.00
  IN1107               0.00   1160.72     52.74      0.00
  IN1108               0.00   1160.72     52.74      0.00
  IN1109               0.00   1160.72     51.88      0.00
  IN1110               0.00   1160.14     51.62      0.00
  IN1111               0.00   1160.14     51.62      0.00
  VN1112               0.00   1160.15     51.63      0.00
  VN1113               0.00   1160.15     51.63      0.00
  IN1114               0.00   1160.15     52.06      0.00
  IN1115               0.00   1160.17     52.94      0.00
  IN1116               0.00   1160.19     53.81      0.00
  VN1117               0.00   1160.20     54.25      0.00
  VN1118               0.00   1160.20     54.25      0.00
  VN1119               0.00   1159.44     52.19      0.00
  IN1120               0.00   1159.43     51.75      0.00
  IN1121               0.00   1159.38     51.30      0.00
  IN1122               0.00   1159.34     50.41      0.00
  IN1123               0.00   1159.30     49.52      0.00
  IN1124               0.00   1159.28     49.52      0.00
  VN1125               0.00   1159.28     49.52      0.00
  VN1126               0.00   1268.45    104.62      0.00
  IN1127               0.00   1326.23    128.79      0.00
  VN1129               0.00   1158.62     51.83      0.00
  VN1130               0.00   1159.44     52.19      0.00
  VN1131               0.00   1160.99     55.46      0.00
  VN1132               0.00   1158.62     48.37      0.00
  VN1133               0.00   1159.32     49.54      0.00
  VN1134               0.00   1159.32     49.54      0.00
  VN1135               0.00   1159.74     50.58      0.00
  VN1136               0.00   1159.74     50.58      0.00
  VN1137               0.00   1160.70     54.03      0.00
  VN1138               0.00   1160.70     54.03      0.00
  VN1139               0.00   1160.73     52.74      0.00
  VN1140               0.00   1160.73     52.74      0.00
  IN1142               0.00   1160.83     48.02      0.00
  IN1143               0.00   1160.83     49.32      0.00
  VN1144               0.00   1160.83     50.19      0.00
  VN1145               0.00   1160.83     50.19      0.00
  IN1146               0.00   1160.83     50.19      0.00
  IN1147               0.00   1160.83     51.49      0.00
  IN1148               0.00   1160.83     52.36      0.00
  IN1149               0.00   1160.83     52.36      0.00
  VN1150               0.00   1160.83     53.66      0.00
  IN1151               0.00   1160.72     51.01      0.00
  VN1152               0.00   1160.72     49.71      0.00
  VN1153               0.00   1160.72     49.71      0.00
  IN1154               0.00   1160.72     49.71      0.00
  IN1155               0.00   1160.72     49.28      0.00
  IN1156               0.00   1160.14     45.56      0.00
  VN1157               0.00   1160.14     45.56      0.00
  VN1158               0.00   1160.14     45.56      0.00
  IN1159               0.00   1160.14     45.99      0.00
  VN1160               0.00   1160.14     46.43      0.00
  VN1161               0.00   1160.14     46.43      0.00
  IN1162               0.00   1160.14     46.86      0.00
  IN1163               0.00   1160.14     47.73      0.00
  VN1164               0.00   1160.14     48.16      0.00
  VN1165               0.00   1160.14     48.16      0.00
  IN1166               0.00   1160.14     50.76      0.00
  VN1167               0.00   1160.14     51.62      0.00
  VN1168               0.00   1160.14     51.62      0.00
  VN1170               0.00   1159.28     49.08      0.00
  IN1171               0.00   1159.28     49.08      0.00
  IN1172               0.00   1159.28     48.65      0.00
  IN1173               0.00   1159.28     47.78      0.00
  VN1174               0.00   1159.28     47.78      0.00
  VN1175               0.00   1159.28     47.78      0.00
  IN1176               0.00   1159.28     47.35      0.00
  VN1177               0.00   1159.28     46.92      0.00
  VN1178               0.00   1159.28     46.92      0.00
  IN1179               0.00   1159.28     46.48      0.00
  VN1180               0.00   1159.28     46.05      0.00
  VN1181               0.00   1158.62     47.07      0.00
  VN1182               0.00   1158.62     46.63      0.00
  VN1183               0.00   1158.62     46.63      0.00
  IN1184               0.00   1158.62     46.20      0.00
  VN1185               0.00   1158.62     46.63      0.00
  VN1186               0.00   1158.62     46.63      0.00
  IN1187               0.00   1158.62     46.63      0.00
  IN1188               0.00   1158.62     46.63      0.00
  IN1189               0.00   1158.62     46.63      0.00
  VN1190               0.00   1158.62     47.07      0.00
  VN1191               0.00   1158.62     47.07      0.00
  IN1192               0.00   1158.62     47.07      0.00
  IN1193               0.00   1158.62     47.07      0.00
  IN1194               0.00   1158.62     47.50      0.00
  IN1195               0.00   1158.62     50.10      0.00
  IN1196               0.00   1158.62     50.53      0.00
  VN1197               0.00   1158.62     50.96      0.00
  VN1198               0.00   1158.62     50.96      0.00
  IN1199               0.00   1158.62     50.96      0.00
  IN1200               0.00   1158.61     51.40      0.00
  IN1201               0.00   1158.61     51.83      0.00
  VN1202               0.00   1158.60     52.26      0.00
  VN1203               0.00   1158.60     52.26      0.00
  IN1204               0.00   1158.60     52.69      0.00
  IN1205               0.00   1158.59     53.12      0.00
  VN1206               0.00   1158.59     53.12      0.00
  VN1207               0.00   1158.59     53.12      0.00
  IN1208               0.00   1158.59     54.42      0.00
  IN1209               0.00   1158.49     54.81      0.00
  IN1210               0.00   1158.14     55.96      0.00
  VN1211               0.00   1158.09     57.24      0.00
  VN1212               0.00   1158.09     57.24      0.00
  IN1213               0.00   1158.05     57.22      0.00
  IN1214               0.00   1157.95     57.17      0.00
  VN1215               0.00   1157.82     57.55      0.00
  VN1216               0.00   1157.82     57.55      0.00
  IN1217               0.00   1157.78     57.53      0.00
  IN1218               0.00   1157.59     57.88      0.00
  VN1219               0.00   1157.47     58.26      0.00
  VN1220               0.00   1157.47     58.26      0.00
  IN1221               0.00   1157.38     58.23      0.00
  VN1222               0.00   1157.10     58.54      0.00
  VN1223               0.00   1157.10     58.54      0.00
  IN1224               0.00   1157.06     58.52      0.00
  IN1225               0.00   1156.88     57.57      0.00
  VN1226               0.00   1156.72     57.07      0.00
  VN1227               0.00   1156.72     57.07      0.00
  IN1228               0.00   1156.67     57.05      0.00
  IN1229               0.00   1156.48     56.54      0.00
  IN1230               0.00   1156.39     56.06      0.00
  VN1231               0.00   1156.39     55.63      0.00
  VN1232               0.00   1156.39     55.63      0.00
  VN1233               0.00   1156.36     54.32      0.00
  VN1234               0.00   1158.05     57.22      0.00
  VN1235               0.00   1158.05     57.22      0.00
  VN1236               0.00   1158.05     57.22      0.00
  VN1237               0.00   1158.62     54.43      0.00
  VN1238               0.00   1158.62     54.43      0.00
  VN1239               0.00   1158.77     54.93      0.00
  VN1240               0.00   1158.77     54.93      0.00
  VN1241               0.00   1158.92     55.43      0.00
  VN1242               0.00   1158.62     50.96      0.00
  VN1243               0.00   1158.62     50.96      0.00
  VN1244               0.00   1158.62     51.83      0.00
  VN1245               0.00   1158.62     47.07      0.00
  VN1246               0.00   1158.62     47.07      0.00
  VN1247               0.00   1158.62     48.37      0.00
  VN1248               0.00   1160.83     53.66      0.00
  VN1249               0.00   1160.83     53.66      0.00
  VN1250               0.00   1160.83     53.66      0.00
  IN1251               0.00   1160.83     52.79      0.00
  IN1252               0.00   1326.52    128.48      0.00
  IN1253               0.00   1326.79    128.60      0.00
  VN1254               0.00   1327.06    128.72      0.00
  VN1255               0.00   1327.06    128.72      0.00
  IN1256               0.00   1327.12    128.31      0.00
  IN1257               0.00   1327.41    128.43      0.00
  VN1259               0.00   1327.81    128.61      0.00
  IN1260               0.00   1327.95    128.67      0.00
  IN1261               0.00   1328.31    128.39      0.00
  IN1262               0.00   1328.60    128.52      0.00
  VN1263               0.00   1328.63    128.53      0.00
  VN1264               0.00   1328.63    128.53      0.00
  IN1265               0.00   1328.77    128.59      0.00
  IN1266               0.00   1160.83     45.86      0.00
  IN1267               0.00   1160.83     46.29      0.00
  IN1268               0.00   1160.83     46.29      0.00
  IN1269               0.00   1160.83     46.72      0.00
  VN1270               0.00   1160.83     47.16      0.00
  VN1271               0.00   1160.83     47.16      0.00
  IN1272               0.00   1160.83     47.59      0.00
  IN1273               0.00   1160.72     47.54      0.00
  IN1274               0.00   1160.72     47.54      0.00
  VN1275               0.00   1160.72     47.11      0.00
  VN1276               0.00   1160.72     47.11      0.00
  IN1277               0.00   1160.72     46.68      0.00
  IN1278               0.00   1160.72     46.68      0.00
  IN1279               0.00   1160.72     46.24      0.00
  IN1280               0.00   1160.72     46.24      0.00
  IN1281               0.00   1160.72     46.24      0.00
  VN1283               0.00   1163.68     57.92      0.00
  IN1284               0.00   1163.68     57.49      0.00
  IN1285               0.00   1163.68     57.49      0.00
  VN1286               0.00   1163.68     57.49      0.00
  VN1287               0.00   1163.68     57.49      0.00
  IN1288               0.00   1163.68     57.49      0.00
  IN1289               0.00   1163.68     57.06      0.00
  IN1290               0.00   1163.68     57.06      0.00
  IN1291               0.00   1163.68     56.62      0.00
  VN1292               0.00   1163.68     56.62      0.00
  VN1293               0.00   1163.68     56.62      0.00
  IN1294               0.00   1163.68     56.62      0.00
  IN1295               0.00   1163.68     55.76      0.00
  IN1296               0.00   1163.68     55.76      0.00
  IN1297               0.00   1163.68     55.76      0.00
  VN1298               0.00   1163.68     55.76      0.00
  VN1299               0.00   1160.99     55.46      0.00
  VN1300               0.00   1160.99     54.59      0.00
  VN1301               0.00   1160.99     54.59      0.00
  IN1303               0.00   1160.99     53.72      0.00
  VN1305               0.00   1160.99     53.29      0.00
  VN1306               0.00   1160.83     52.79      0.00
  VN1307               0.00   1160.83     52.79      0.00
  IN1308               0.00   1160.83     52.79      0.00
  IN1309               0.00   1160.83     52.36      0.00
  VN1310               0.00   1160.83     52.36      0.00
  VN1311               0.00   1160.83     52.36      0.00
  IN1312               0.00   1160.83     49.76      0.00
  IN1313               0.00   1160.83     49.32      0.00
  VN1314               0.00   1160.83     49.32      0.00
  VN1315               0.00   1160.83     49.32      0.00
  IN1316               0.00   1160.83     48.46      0.00
  VN1317               0.00   1160.99     53.29      0.00
  IN1318               0.00   1160.99     53.29      0.00
  VN1319               0.00   1163.68     55.76      0.00
  IN1320               0.00   1163.68     55.76      0.00
  IN1321               0.00   1161.85     52.80      0.00
  VN1322               0.00   1161.03     52.44      0.00
  VN1323               0.00   1161.03     52.44      0.00
  IN1324               0.00   1160.42     52.18      0.00
  IN1325               0.00   1159.24     51.67      0.00
  VN1326               0.00   1159.17     51.64      0.00
  VN1327               0.00   1159.17     51.64      0.00
  IN1328               0.00   1158.99     51.56      0.00
  VN1329               0.00   1156.46     58.26      0.00
  IN1330               0.00   1156.46     59.13      0.00
  IN1331               0.00   1156.45     59.12      0.00
  IN1332               0.00   1156.44     59.12      0.00
  IN1333               0.00   1156.44     59.12      0.00
  VN1334               0.00   1156.44     59.12      0.00
  VN1335               0.00   1156.44     59.12      0.00
  IN1336               0.00   1156.44     59.12      0.00
  VN1337               0.00   1156.45     59.12      0.00
  VN1339               0.00   1156.27     59.05      0.00
  VN1340               0.00   1156.27     59.05      0.00
  IN1341               0.00   1156.27     59.05      0.00
  IN1342               0.00   1156.26     59.04      0.00
  VN1343               0.00   1156.26     58.17      0.00
  IN1344               0.00   1156.59     57.45      0.00
  VN1345               0.00   1156.45     59.12      0.00
  VN1346               0.00   1156.59     57.45      0.00
  VN1347               0.00   1156.59     57.45      0.00
  VN1348               0.00   1156.59     57.45      0.00
  IN1349               0.00   1156.59     57.45      0.00
  VN1350               0.00   1156.60     57.45      0.00
  VN1351               0.00   1156.60     57.45      0.00
  IN1352               0.00   1156.60     57.02      0.00
  VN1353               0.00   1156.61     56.16      0.00
  VN1354               0.00   1156.67     49.26      0.00
  VN1355               0.00   1156.67     49.26      0.00
  VN1356               0.00   1156.66     52.71      0.00
  VN1357               0.00   1156.66     52.71      0.00
  VN1358               0.00   1156.65     54.44      0.00
  VN1359               0.00   1156.65     54.44      0.00
  VN1360               0.00   1156.64     55.74      0.00
  VN1361               0.00   1156.64     55.74      0.00
  VN1362               0.00   1156.63     56.17      0.00
  VN1363               0.00   1156.63     56.17      0.00
  VN1364               0.00   1156.63     56.17      0.00
  VN1365               0.00   1156.63     56.17      0.00
  IN1366               0.00   1156.63     56.17      0.00
  VN1367               0.00   1156.63     56.17      0.00
  VN1368               0.00   1156.63     56.17      0.00
  VN1369               0.00   1156.64     56.17      0.00
  VN1370               0.00   1156.64     56.17      0.00
  IN1371               0.00   1156.64     56.17      0.00
  VN1372               0.00   1156.64     56.17      0.00
  VN1373               0.00   1156.64     56.17      0.00
  VN1374               0.00   1156.65     56.18      0.00
  VN1375               0.00   1156.65     56.18      0.00
  VN1376               0.00   1156.66     52.72      0.00
  VN1377               0.00   1156.66     52.72      0.00
  VN1378               0.00   1156.67     49.69      0.00
  VN1379               0.00   1156.67     49.69      0.00
  VN1380               0.00   1156.67     48.82      0.00
  VN1381               0.00   1156.67     48.82      0.00
  VN1382               0.00   1156.68     48.39      0.00
  VN1383               0.00   1156.68     48.39      0.00
  IN1384               0.00   1156.68     48.39      0.00
[...]
  IN1519               0.00   1149.90     54.99      5.99
  HY46                 0.00   1154.48     50.90      0.00
  HY47                 0.00   1154.48     50.04      0.00
  HY48                 0.00   1154.48     45.70      0.00
  HY49                 0.00   1154.67     50.55      0.00
  HY50                 0.00   1154.67     54.02      0.00
  HY51                 0.00   1276.07    107.06      0.00
  HY52                 0.00   1327.01    127.83      0.00
  HY53                 0.00   1150.97     48.08      0.00
  HY54                 0.00   1149.89     48.05      0.00
  HY55                 0.00   1149.88     54.55      0.00
  HY56                 0.00   1149.87     53.67      0.00
  HY57                 0.00   1149.87     49.77      0.00
  HY58                 0.00   1154.48     43.10      0.00
  HY59                 0.00   1154.37     43.49      0.00
  HY60                 0.00   1154.48     46.57      0.00
  HY61                 0.00   1154.37     49.99      0.00
  HY62                 0.00   1155.15     50.33      0.00
  HY63                 0.00   1188.18     69.41      0.00
  HY64                 0.00   1149.75     48.85      0.00
  HY65                 0.00   1157.41     54.34      0.00
  HY66                 0.00   1149.89     51.95      0.00
  HY67                 0.00   1149.87     45.87      0.00
  IN1520               0.00   1149.88     46.53      6.00
  HY68                 0.00   1149.88     46.53      0.00
  IN1521               0.00   1149.91     55.86      5.98
  HY69                 0.00   1149.91     55.86      0.00
  IN1522               0.00   1074.99     17.33      0.00
  TN1523               0.44   1153.81     43.68      6.00
  TN1525               0.29   1151.43     54.78      5.15
  TN1524               0.15   1213.33     80.74      6.00
  TN1526               0.00   1153.90     52.39      6.00
  TN1527               0.00   1174.61     62.66      6.00
  TN1528               0.13   1212.62     79.13      1.93
  TN1529               0.00   1254.57     96.87      6.00
  IN1530               0.00   1174.61     62.66      0.32
  IN1531               0.00   1212.62     79.13      0.32
  IN1532               0.00   1254.57     97.31      0.32
  TN1533              10.13   1149.89     54.11      5.99
  IN1534               0.00   1150.11     52.05      4.01
  IN1535               0.00   1150.21     52.09      3.55
  IN1536               0.00   1150.21     51.66      3.87
  IN1537               0.00   1150.16     49.90      4.03
  IN1538               0.00   1150.09     49.44      4.59
  IN1539               0.00   1150.09     49.00      6.00
  IN1540               0.00   1150.09     49.44      6.00
  IN1541               0.00   1150.06     50.29      6.00
  IN1542               0.00   1150.04     50.71      6.00
  IN1543               0.00   1150.04     52.45      6.00
  IN1544               0.00   1150.03     54.61      6.00
  IN1545               0.00   1150.02     56.34      6.00
  IN1546               0.00   1150.01     58.07      6.00
  IN1547               0.00   1150.01     58.50      6.00
  IN1548               0.00   1150.01     58.50      5.80
  IN1549               0.00   1149.89     56.28      6.00
  IN1550               0.00   1149.94     56.74      5.91
  IN1551               0.00   1149.90     55.42      5.99
  IN1552               0.00   1149.89     56.28      6.00
  TN1553               0.39   1150.16     51.63      4.03
  TN1554               0.39   1150.17     51.20      4.27
  TN1555               0.26   1150.18     52.07      4.03
  TN1556               0.13   1150.20     51.21      4.41
  TN1557               0.26   1150.13     49.88      4.59
  TN1558               0.26   1150.12     49.45      4.59
  TN1559               0.13   1150.14     50.32      4.87
  TN1560               0.13   1150.14     49.89      4.88
  TN1561               0.00   1150.09     49.00      6.00
  TN1562               0.00   1150.09     49.00      6.00
  TN1563               0.52   1150.03     49.41      4.64
  TN1564               0.13   1150.07     49.00      5.44
  TN1565               0.77   1149.97     48.95      6.00
  TN1566               0.39   1150.05     48.99      6.00
  TN1567               0.52   1150.04     49.41      6.00
  TN1568               0.13   1150.08     49.00      6.00
  TN1569               0.52   1150.03     49.41      6.00
  TN1570               0.13   1150.08     49.43      6.00
  TN1571               0.39   1150.05     48.98      6.00
  TN1572               0.13   1150.08     49.86      6.00
  TN1573               0.26   1150.03     49.84      6.00
  TN1574               0.39   1150.02     49.84      6.00
  TN1575               0.13   1150.05     49.85      6.00
  TN1576               0.26   1150.04     50.28      6.00
  TN1577               0.13   1150.03     50.71      6.00
  TN1578               0.13   1150.03     51.14      6.00
  TN1579               0.64   1149.97     51.11      6.00
  TN1580               0.13   1150.03     51.57      6.00
  TN1581               0.39   1150.00     51.56      6.00
  TN1582               0.52   1149.99     53.29      6.00
  TN1583               0.26   1150.01     52.44      6.00
  TN1584               0.13   1150.02     52.87      6.00
  TN1585               0.13   1150.01     54.17      6.00
  TN1586               0.39   1149.98     54.59      6.00
  TN1587               0.26   1150.01     54.60      6.00
  TN1588               0.64   1149.90     55.42      6.00
  TN1589               0.52   1149.94     55.44      6.00
  TN1590               0.13   1150.00     56.33      6.00
  TN1591               0.26   1150.00     56.33      6.00
  TN1592               0.39   1149.96     57.61      6.00
  TN1593               0.39   1149.96     57.18      6.00
  TN1594               0.13   1150.00     58.06      6.00
  TN1595               0.26   1149.99     58.06      6.00
  TN1596               0.13   1149.99     58.06      6.00
  TN1597               0.39   1149.97     58.05      6.00
  TN1598               0.13   1149.99     58.49      6.00
  TN1599               0.39   1149.98     58.49      6.00
  TN1600               0.52   1149.93     58.47      6.00
  IN1602               0.00   1150.00     49.40      4.01
  IN1603               0.00   1150.00     48.96      5.15
  IN1604               0.00   1149.95     48.08      5.32
  IN1605               0.00   1149.92     48.49      5.49
  IN1601               0.00   1150.04     51.14      4.83
  IN1606               0.00   1149.91     48.49      5.62
  IN1607               0.00   1149.91     48.49      5.65
  IN1608               0.00   1149.91     48.92      5.97
  IN1609               0.00   1149.91     49.79      6.00
  IN1610               0.00   1149.91     50.66      6.00
  IN1611               0.00   1149.92     53.69      6.00
  IN1612               0.00   1149.92     54.56      6.00
  IN1613               0.00   1149.92     55.86      6.00
  IN1614               0.00   1149.93     56.30      6.00
  IN1615               0.00   1149.94     56.73      6.00
  TN1616               0.26   1150.00     50.70      6.00
  TN1617               0.13   1150.00     49.40      6.00
  TN1618               0.26   1150.00     48.96      6.00
  TN1619               0.00   1150.00     48.96      6.00
  TN1620               0.13   1149.95     48.51      6.00
  TN1621               0.26   1149.95     48.51      6.00
  TN1622               0.52   1149.92     48.49      6.00
  TN1623               0.39   1149.91     48.49      6.00
  TN1624               0.00   1149.91     48.49      6.00
  TN1625               0.39   1149.91     48.92      6.00
  TN1626               0.13   1149.91     48.92      6.00
  TN1627               0.13   1149.91     49.36      6.00
  TN1628               0.39   1149.91     49.79      6.00
  TN1629               0.00   1149.91     50.23      6.00
  TN1630               0.39   1149.91     50.66      6.00
  TN1631               0.26   1149.92     53.26      6.00
  TN1632               0.39   1149.92     54.13      6.00
  TN1633               0.26   1149.92     54.56      6.00
  TN1634               0.52   1149.92     54.99      6.00
  TN1635               0.13   1149.92     55.86      6.00
  TN1636               0.00   1149.92     56.30      6.00
  TN1637               0.00   1149.93     56.73      6.00
  TN1638               0.00   1149.93     56.73      6.00
  TN1639               0.00   1149.94     56.73      6.00
  IN1640               0.00   1149.90     47.62      5.77
  IN1641               0.00   1149.90     47.62      5.83
  IN1642               0.00   1149.90     48.49      5.92
  IN1643               0.00   1149.90     50.22      6.00
  IN1644               0.00   1149.90     51.52      6.00
  IN1645               0.00   1149.90     52.82      6.00
  IN1646               0.00   1149.90     54.12      6.00
  IN1647               0.00   1149.90     55.42      6.00
  IN1648               0.00   1149.90     54.99      6.00
  TN1649               0.39   1149.90     47.62      6.00
  TN1650               0.13   1149.90     48.05      6.00
  TN1651               0.52   1149.90     48.05      6.00
  TN1652               0.13   1149.90     48.49      6.00
  TN1653               0.39   1149.90     48.92      6.00
  TN1654               0.64   1149.90     50.22      6.00
  TN1655               0.26   1149.90     51.09      6.00
  TN1656               0.00   1149.90     51.52      6.00
  TN1657               0.26   1149.90     52.82      6.00
  TN1658               0.13   1149.90     53.25      6.00
  TN1659               0.26   1149.90     54.12      6.00
  TN1660               0.39   1149.90     54.55      6.00
  TN1661               0.13   1149.90     54.99      6.00
  TN1662               0.13   1149.90     55.42      6.00
  TN1663               0.13   1149.90     55.85      6.00
  TN1664               0.26   1149.90     55.85      6.00
  IN1665               0.00   1149.89     47.18      5.95
  IN1666               0.00   1149.90     47.19      6.00
  IN1667               0.00   1149.88     55.41      6.00
  IN1668               0.00   1149.87     45.01      6.00
  IN1669               0.00   1149.87     52.80      6.00
  IN1670               0.00   1149.89     47.18      6.00
  IN1671               0.00   1149.89     47.61      6.00
  IN1672               0.00   1149.88     48.48      6.00
  IN1673               0.00   1149.88     49.35      6.00
  IN1674               0.00   1149.88     50.65      6.00
  IN1675               0.00   1149.88     53.68      6.00
  IN1676               0.00   1149.88     54.98      6.00
  IN1677               0.00   1149.88     55.41      6.00
  IN1678               0.00   1149.88     55.85      6.00
  IN1679               0.00   1149.88     56.28      6.00
  IN1680               0.00   1149.90     47.19      6.00
  IN1681               0.00   1149.89     47.61      6.00
  IN1682               0.00   1149.89     48.05      6.00
  IN1683               0.00   1149.88     49.34      6.00
  IN1684               0.00   1149.88     51.51      6.00
  IN1685               0.00   1149.88     53.24      6.00
  IN1686               0.00   1149.88     54.54      6.00
  IN1687               0.00   1149.88     54.98      6.00
  IN1688               0.00   1149.87     46.74      6.00
  IN1689               0.00   1149.87     47.17      6.00
  IN1690               0.00   1149.87     48.47      6.00
  IN1691               0.00   1149.87     49.77      6.00
  IN1692               0.00   1149.87     51.07      6.00
  IN1693               0.00   1149.87     52.37      6.00
  IN1694               0.00   1149.87     53.24      6.00
  IN1695               0.00   1149.87     53.67      6.00
  IN1696               0.00   1149.86     45.44      6.00
  IN1697               0.00   1149.86     45.87      6.00
  IN1698               0.00   1149.86     47.60      6.00
  IN1699               0.00   1149.86     48.90      6.00
  IN1700               0.00   1149.86     50.64      6.00
  IN1701               0.00   1149.86     51.50      6.00
  IN1702               0.00   1149.86     52.80      6.00
  IN1703               0.00   1149.86     52.80      6.00
  TN1704               0.26   1149.86     47.17      6.00
  TN1705               0.39   1149.85     47.17      6.00
  TN1706               0.64   1149.84     47.16      6.00
  TN1707               0.13   1149.88     47.18      6.00
  TN1708               0.26   1149.86     47.60      6.00
  TN1709               0.26   1149.87     47.60      6.00
  TN1710               0.52   1149.84     47.59      6.00
  TN1711               0.13   1149.88     47.61      6.00
  TN1712               0.39   1149.84     48.02      6.00
  TN1713               0.26   1149.86     48.47      6.00
  TN1715               0.39   1149.85     48.47      6.00
  TN1714               0.52   1149.84     48.46      6.00
  TN1716               0.13   1149.87     48.91      6.00
  TN1717               0.00   1149.88     49.78      6.00
  TN1719               0.26   1149.86     49.77      6.00
  TN1718               0.26   1149.86     49.34      6.00
  TN1720               0.39   1149.85     50.20      6.00
  TN1721               0.64   1149.81     51.05      6.00
  TN1722               0.26   1149.86     50.20      6.00
  TN1723               0.26   1149.85     53.23      6.00
  TN1726               0.39   1149.86     53.67      6.00
  TN1724               0.26   1149.85     51.93      6.00
  TN1725               0.52   1149.84     54.09      6.00
  TN1727               0.26   1149.86     54.54      6.00
  TN1728               0.26   1149.86     54.53      6.00
  TN1729               0.39   1149.85     54.96      6.00
  TN1732               0.52   1149.86     55.40      6.00
  TN1730               0.52   1149.84     55.39      6.00
  TN1731               0.39   1149.85     55.83      6.00
  TN1734               0.39   1149.86     55.83      6.00
  TN1735               0.13   1149.87     56.27      6.00
  TN1733               0.26   1149.86     55.84      6.00
  TN1738               0.39   1149.87     56.27      6.00
  TN1736               0.52   1149.83     56.26      6.00
  TN1737               0.26   1149.86     56.27      6.00
  TN1739               0.52   1149.87     47.17      6.00
  TN1740               0.00   1149.90     47.19      6.00
  TN1741               0.26   1149.88     47.18      6.00
  TN1742               0.13   1149.89     47.18      6.00
  TN1743               0.13   1149.88     47.61      6.00
  TN1744               0.00   1149.89     48.05      6.00
  TN1745               0.13   1149.88     47.61      6.00
  TN1746               0.52   1149.85     47.60      6.00
  TN1747               0.39   1149.85     48.03      6.00
  TN1748               0.13   1149.88     48.48      6.00
  TN1749               0.52   1149.85     48.03      6.00
  TN1750               0.26   1149.87     48.47      6.00
  TN1751               0.26   1149.86     48.90      6.00
  TN1752               0.13   1149.87     49.34      6.00
  TN1753               0.13   1149.87     49.34      6.00
  TN1754               0.39   1149.85     49.76      6.00
  TN1755               0.39   1149.85     51.50      6.00
  TN1756               0.64   1149.83     51.92      6.00
  TN1757               0.39   1149.85     50.63      6.00
  TN1758               0.52   1149.84     51.93      6.00
  TN1759               0.39   1149.85     52.80      6.00
  TN1760               0.52   1149.85     53.23      6.00
  TN1761               0.00   1149.88     53.24      6.00
  TN1762               0.13   1149.87     53.67      6.00
  TN1763               0.26   1149.86     54.10      6.00
  TN1764               0.00   1149.88     54.98      6.00
  TN1765               0.52   1149.84     54.52      6.00
  TN1766               0.13   1149.87     54.97      6.00
  TN1767               0.26   1149.86     54.97      6.00
  TN1768               0.64   1149.80     55.81      6.00
  TN1769               0.13   1149.87     55.41      6.00
  TN1770               0.39   1149.84     55.83      6.00
  TN1771               0.52   1149.87     46.74      6.00
  TN1772               0.00   1149.87     46.74      6.00
  TN1773               0.26   1149.87     46.74      6.00
  TN1774               0.13   1149.87     47.17      6.00
  TN1775               0.39   1149.87     46.74      6.00
  TN1776               0.39   1149.87     47.17      6.00
  TN1777               0.26   1149.87     47.17      6.00
  TN1778               0.13   1149.87     47.17      6.00
  TN1779               0.39   1149.87     48.04      6.00
  TN1780               0.26   1149.87     48.47      6.00
  TN1781               0.13   1149.87     47.61      6.00
  TN1782               0.13   1149.87     48.47      6.00
  TN1783               0.13   1149.87     49.34      6.00
  TN1784               0.26   1149.87     49.77      6.00
  TN1785               0.00   1149.87     49.34      6.00
  TN1786               0.00   1149.87     49.77      6.00
  TN1789               0.26   1149.87     50.64      6.00
  TN1790               0.52   1149.87     51.51      6.00
  TN1787               0.13   1149.87     50.64      6.00
  TN1788               0.52   1149.87     51.07      6.00
  TN1791               0.39   1149.87     51.94      6.00
  TN1792               0.00   1149.87     52.37      6.00
  TN1793               0.52   1149.87     52.37      6.00
  TN1794               0.52   1149.87     52.37      6.00
  TN1795               0.26   1149.87     52.81      6.00
  TN1796               0.13   1149.87     53.24      6.00
  TN1797               0.13   1149.87     53.24      6.00
  TN1798               0.39   1149.87     53.67      6.00
  TN1799               0.26   1149.87     53.67      6.00
  TN1800               0.39   1149.87     53.67      6.00
  TN1801               0.26   1149.87     54.11      6.00
  TN1802               0.39   1149.87     54.11      6.00
  TN1805               0.64   1149.86     45.44      6.00
  TN1803               0.26   1149.86     45.44      6.00
  TN1804               0.13   1149.86     45.44      6.00
  TN1806               0.26   1149.86     45.44      6.00
  TN1807               0.13   1149.86     45.44      6.00
  TN1808               0.00   1149.86     45.87      6.00
  TN1809               0.26   1149.86     45.87      6.00
  TN1810               0.13   1149.86     46.74      6.00
  TN1811               0.13   1149.86     47.17      6.00
  TN1812               0.13   1149.86     47.17      6.00
  TN1813               0.39   1149.86     47.17      6.00
  TN1814               0.13   1149.86     48.04      6.00
  TN1815               0.00   1149.86     48.47      6.00
  TN1816               0.13   1149.86     49.34      6.00
  TN1817               0.00   1149.86     48.47      6.00
  TN1818               0.13   1149.86     49.34      6.00
  TN1819               0.52   1149.86     50.20      6.00
  TN1820               0.13   1149.86     50.64      6.00
  TN1821               0.00   1149.86     50.20      6.00
  TN1822               0.52   1149.86     50.64      6.00
  TN1823               0.26   1149.86     51.50      6.00
  TN1824               0.13   1149.86     51.94      6.00
  TN1825               0.39   1149.86     51.50      6.00
  TN1826               0.26   1149.86     51.94      6.00
  TN1827               0.13   1149.86     52.37      6.00
  TN1828               0.52   1149.86     52.80      6.00
  TN1829               0.39   1149.86     52.37      6.00
  TN1830               0.13   1149.86     52.80      6.00
  TN1831               0.13   1149.86     52.80      6.00
  TN1832               0.52   1149.86     52.80      6.00
  TN1833               0.26   1149.86     52.80      6.00
  TN1834               0.52   1149.86     52.80      6.00
  Aquifer           -184.91    930.00      0.00      0.00  Reservoir
  SurfaceResrvr    -1107.07   1030.00      0.00      0.00  Reservoir
  Tank               469.29   1149.71     47.54      5.99  Tank
   
  Analysis ended Wed Sep 28 11:04:59 2022
