  Page 1                                    Mon Oct 24 10:26:11 2022

  ******************************************************************
  *                           E P A N E T                          *
  *                   Hydraulic and Water Quality                  *
  *                   Analysis for Pipe Networks                   *
  *                         Version 2.2                            *
  ******************************************************************
  
  Pipe	Map	Name:	Pipenet6.shp
  Node	Map	Name:	Epanmap.shp
  Mon	Jul	18	13:25:42	2005
   
      Input Data File ................... temp.inp
      Number of Junctions................ 1574
      Number of Reservoirs............... 2
      Number of Tanks ................... 1
      Number of Pipes ................... 1415
      Number of Pumps ................... 8
      Number of Valves .................. 196
      Headloss Formula .................. Darcy-Weisbach
      Nodal Demand Model ................ DDA
      Hydraulic Timestep ................ 1.00 hrs
      Hydraulic Accuracy ................ 0.001000
      Status Check Frequency ............ 2
      Maximum Trials Checked ............ 10
      Damping Limit Threshold ........... 0.000000
      Maximum Trials .................... 40
      Quality Analysis .................. Chemical
      Water Quality Time Step ........... 5.00 min
      Water Quality Tolerance ........... 0.01 mg/L
      Specific Gravity .................. 1.00
      Relative Kinematic Viscosity ...... 1.00
      Relative Chemical Diffusivity ..... 1.00
      Demand Multiplier ................. 1.00
      Total Duration .................... 28.00 hrs
      Reporting Criteria:
         All Nodes
         No Links
   
  Analysis begun Mon Oct 24 10:26:11 2022

   
  Hydraulic Status:
  -----------------------------------------------------------------------
     0:00:00: Balanced after 37 trials
     0:00:00: Reservoir Aquifer is emptying
     0:00:00: Reservoir SurfaceResrvr is emptying
     0:00:00: Tank Tank is filling at 115.00 ft
   
     0:06:00: Pump HSP#1 changed by rule 7
     0:06:00: Balanced after 5 trials
     0:06:00: Reservoir Aquifer is closed
     0:06:00: Reservoir SurfaceResrvr is closed
     0:06:00: Tank Tank is emptying at 115.29 ft
     0:06:00: CV 1 changed from open to closed
     0:06:00: Pump HSP#1 changed from open to closed
   
  WARNING: Pump WellPump#1 closed because cannot deliver head at 0:06:00 hrs.
  WARNING: Pump WellPump#2 closed because cannot deliver head at 0:06:00 hrs.
  WARNING: Pump WellPump#3 closed because cannot deliver head at 0:06:00 hrs.
  WARNING: Pump WellPump#4 closed because cannot deliver head at 0:06:00 hrs.
  WARNING: Pump ResvrPump closed because cannot deliver head at 0:06:00 hrs.
   
     1:00:00: Balanced after 1 trials
   
  WARNING: Pump WellPump#1 closed because cannot deliver head at 1:00:00 hrs.
  WARNING: Pump WellPump#2 closed because cannot deliver head at 1:00:00 hrs.
  WARNING: Pump WellPump#3 closed because cannot deliver head at 1:00:00 hrs.
  WARNING: Pump WellPump#4 closed because cannot deliver head at 1:00:00 hrs.
   
     2:00:00: Balanced after 2 trials
   
  WARNING: Pump WellPump#1 closed because cannot deliver head at 2:00:00 hrs.
  WARNING: Pump WellPump#2 closed because cannot deliver head at 2:00:00 hrs.
  WARNING: Pump WellPump#3 closed because cannot deliver head at 2:00:00 hrs.
  WARNING: Pump WellPump#4 closed because cannot deliver head at 2:00:00 hrs.
   
     2:30:00: Pump HSP#3 changed by rule 6
     2:30:00: Balanced after 10 trials
     2:30:00: Reservoir Aquifer is emptying
     2:30:00: Reservoir SurfaceResrvr is emptying
     2:30:00: Tank Tank is filling at 109.87 ft
     2:30:00: CV 1 changed from closed to open
     2:30:00: Pump HSP#3 changed from closed to open
   
     2:36:00: Pump HSP#3 changed by rule 7
     2:36:00: Balanced after 5 trials
     2:36:00: Reservoir Aquifer is closed
     2:36:00: Reservoir SurfaceResrvr is closed
     2:36:00: Tank Tank is emptying at 110.16 ft
     2:36:00: CV 1 changed from open to closed
     2:36:00: Pump HSP#3 changed from open to closed
   
  WARNING: Pump WellPump#1 closed because cannot deliver head at 2:36:00 hrs.
  WARNING: Pump WellPump#2 closed because cannot deliver head at 2:36:00 hrs.
  WARNING: Pump WellPump#3 closed because cannot deliver head at 2:36:00 hrs.
  WARNING: Pump WellPump#4 closed because cannot deliver head at 2:36:00 hrs.
  WARNING: Pump ResvrPump closed because cannot deliver head at 2:36:00 hrs.
   
     2:42:00: Pump HSP#3 changed by rule 6
     2:42:00: Balanced after 10 trials
     2:42:00: Reservoir Aquifer is emptying
     2:42:00: Reservoir SurfaceResrvr is emptying
     2:42:00: Tank Tank is filling at 109.92 ft
     2:42:00: CV 1 changed from closed to open
     2:42:00: Pump HSP#3 changed from closed to open
   
     2:48:00: Pump HSP#3 changed by rule 7
     2:48:00: Balanced after 5 trials
     2:48:00: Reservoir Aquifer is closed
     2:48:00: Reservoir SurfaceResrvr is closed
     2:48:00: Tank Tank is emptying at 110.21 ft
     2:48:00: CV 1 changed from open to closed
     2:48:00: Pump HSP#3 changed from open to closed
   
  WARNING: Pump WellPump#1 closed because cannot deliver head at 2:48:00 hrs.
  WARNING: Pump WellPump#2 closed because cannot deliver head at 2:48:00 hrs.
  WARNING: Pump WellPump#3 closed because cannot deliver head at 2:48:00 hrs.
  WARNING: Pump WellPump#4 closed because cannot deliver head at 2:48:00 hrs.
  WARNING: Pump ResvrPump closed because cannot deliver head at 2:48:00 hrs.
   
     2:54:00: Pump HSP#3 changed by rule 6
     2:54:00: Balanced after 10 trials
     2:54:00: Reservoir Aquifer is emptying
     2:54:00: Reservoir SurfaceResrvr is emptying
     2:54:00: Tank Tank is filling at 109.98 ft
     2:54:00: CV 1 changed from closed to open
     2:54:00: Pump HSP#3 changed from closed to open
   
     3:00:00: Pump HSP#3 changed by rule 7
     3:00:00: Balanced after 5 trials
     3:00:00: Reservoir Aquifer is closed
     3:00:00: Reservoir SurfaceResrvr is closed
     3:00:00: Tank Tank is emptying at 110.27 ft
     3:00:00: CV 1 changed from open to closed
     3:00:00: Pump HSP#3 changed from open to closed
   
  WARNING: Pump WellPump#1 closed because cannot deliver head at 3:00:00 hrs.
  WARNING: Pump WellPump#2 closed because cannot deliver head at 3:00:00 hrs.
  WARNING: Pump WellPump#3 closed because cannot deliver head at 3:00:00 hrs.
  WARNING: Pump WellPump#4 closed because cannot deliver head at 3:00:00 hrs.
  WARNING: Pump ResvrPump closed because cannot deliver head at 3:00:00 hrs.
   
     3:12:00: Pump HSP#3 changed by rule 6
     3:12:00: Balanced after 17 trials
     3:12:00: Reservoir Aquifer is emptying
     3:12:00: Reservoir SurfaceResrvr is emptying
     3:12:00: Tank Tank is filling at 109.74 ft
     3:12:00: CV 1 changed from closed to open
     3:12:00: Pump HSP#3 changed from closed to open
   
     3:24:00: Pump HSP#3 changed by rule 7
     3:24:00: Balanced after 5 trials
     3:24:00: Reservoir Aquifer is closed
     3:24:00: Reservoir SurfaceResrvr is closed
     3:24:00: Tank Tank is emptying at 110.26 ft
     3:24:00: CV 1 changed from open to closed
     3:24:00: Pump HSP#3 changed from open to closed
   
  WARNING: Pump WellPump#1 closed because cannot deliver head at 3:24:00 hrs.
  WARNING: Pump WellPump#2 closed because cannot deliver head at 3:24:00 hrs.
  WARNING: Pump WellPump#3 closed because cannot deliver head at 3:24:00 hrs.
  WARNING: Pump WellPump#4 closed because cannot deliver head at 3:24:00 hrs.
  WARNING: Pump ResvrPump closed because cannot deliver head at 3:24:00 hrs.
   
     3:30:00: Pump HSP#3 changed by rule 6
     3:30:00: Balanced after 17 trials
     3:30:00: Reservoir Aquifer is emptying
     3:30:00: Reservoir SurfaceResrvr is emptying
     3:30:00: Tank Tank is filling at 110.00 ft
     3:30:00: CV 1 changed from closed to open
     3:30:00: Pump HSP#3 changed from closed to open
   
     3:36:00: Pump HSP#3 changed by rule 7
     3:36:00: Balanced after 5 trials
     3:36:00: Reservoir Aquifer is closed
     3:36:00: Reservoir SurfaceResrvr is closed
     3:36:00: Tank Tank is emptying at 110.26 ft
     3:36:00: CV 1 changed from open to closed
     3:36:00: Pump HSP#3 changed from open to closed
   
  WARNING: Pump WellPump#1 closed because cannot deliver head at 3:36:00 hrs.
  WARNING: Pump WellPump#2 closed because cannot deliver head at 3:36:00 hrs.
  WARNING: Pump WellPump#3 closed because cannot deliver head at 3:36:00 hrs.
  WARNING: Pump WellPump#4 closed because cannot deliver head at 3:36:00 hrs.
  WARNING: Pump ResvrPump closed because cannot deliver head at 3:36:00 hrs.
   
     3:42:00: Pump HSP#3 changed by rule 6
     3:42:00: Balanced after 17 trials
     3:42:00: Reservoir Aquifer is emptying
     3:42:00: Reservoir SurfaceResrvr is emptying
     3:42:00: Tank Tank is filling at 109.99 ft
     3:42:00: CV 1 changed from closed to open
     3:42:00: Pump HSP#3 changed from closed to open
   
     3:48:00: Pump HSP#3 changed by rule 7
     3:48:00: Balanced after 5 trials
     3:48:00: Reservoir Aquifer is closed
     3:48:00: Reservoir SurfaceResrvr is closed
     3:48:00: Tank Tank is emptying at 110.25 ft
     3:48:00: CV 1 changed from open to closed
     3:48:00: Pump HSP#3 changed from open to closed
   
  WARNING: Pump WellPump#1 closed because cannot deliver head at 3:48:00 hrs.
  WARNING: Pump WellPump#2 closed because cannot deliver head at 3:48:00 hrs.
  WARNING: Pump WellPump#3 closed because cannot deliver head at 3:48:00 hrs.
  WARNING: Pump WellPump#4 closed because cannot deliver head at 3:48:00 hrs.
  WARNING: Pump ResvrPump closed because cannot deliver head at 3:48:00 hrs.
   
     3:54:00: Pump HSP#3 changed by rule 6
     3:54:00: Balanced after 17 trials
     3:54:00: Reservoir Aquifer is emptying
     3:54:00: Reservoir SurfaceResrvr is emptying
     3:54:00: Tank Tank is filling at 109.99 ft
     3:54:00: CV 1 changed from closed to open
     3:54:00: Pump HSP#3 changed from closed to open
   
     4:00:00: Pump HSP#3 changed by rule 7
     4:00:00: Balanced after 5 trials
     4:00:00: Reservoir Aquifer is closed
     4:00:00: Reservoir SurfaceResrvr is closed
     4:00:00: Tank Tank is emptying at 110.25 ft
     4:00:00: CV 1 changed from open to closed
     4:00:00: Pump HSP#3 changed from open to closed
   
  WARNING: Pump WellPump#1 closed because cannot deliver head at 4:00:00 hrs.
  WARNING: Pump WellPump#2 closed because cannot deliver head at 4:00:00 hrs.
  WARNING: Pump WellPump#3 closed because cannot deliver head at 4:00:00 hrs.
  WARNING: Pump WellPump#4 closed because cannot deliver head at 4:00:00 hrs.
  WARNING: Pump ResvrPump closed because cannot deliver head at 4:00:00 hrs.
   
     4:06:00: Pump HSP#3 changed by rule 6
     4:06:00: Balanced after 29 trials
     4:06:00: Reservoir Aquifer is emptying
     4:06:00: Reservoir SurfaceResrvr is emptying
     4:06:00: Tank Tank is filling at 109.91 ft
     4:06:00: CV 1 changed from closed to open
     4:06:00: Pump HSP#3 changed from closed to open
   
     4:12:00: Pump HSP#3 changed by rule 7
     4:12:00: Balanced after 5 trials
     4:12:00: Reservoir Aquifer is closed
     4:12:00: Reservoir SurfaceResrvr is closed
     4:12:00: Tank Tank is emptying at 110.10 ft
     4:12:00: CV 1 changed from open to closed
     4:12:00: Pump HSP#3 changed from open to closed
   
  WARNING: Pump WellPump#1 closed because cannot deliver head at 4:12:00 hrs.
  WARNING: Pump WellPump#2 closed because cannot deliver head at 4:12:00 hrs.
  WARNING: Pump WellPump#3 closed because cannot deliver head at 4:12:00 hrs.
  WARNING: Pump WellPump#4 closed because cannot deliver head at 4:12:00 hrs.
   
     4:18:00: Pump HSP#3 changed by rule 6
     4:18:00: Balanced after 29 trials
     4:18:00: Reservoir Aquifer is emptying
     4:18:00: Reservoir SurfaceResrvr is emptying
     4:18:00: Tank Tank is filling at 109.77 ft
     4:18:00: CV 1 changed from closed to open
     4:18:00: Pump HSP#3 changed from closed to open
   
     4:30:00: Pump HSP#3 changed by rule 7
     4:30:00: Balanced after 5 trials
     4:30:00: Reservoir Aquifer is closed
     4:30:00: Reservoir SurfaceResrvr is closed
     4:30:00: Tank Tank is emptying at 110.15 ft
     4:30:00: CV 1 changed from open to closed
     4:30:00: Pump HSP#3 changed from open to closed
   
  WARNING: Pump WellPump#1 closed because cannot deliver head at 4:30:00 hrs.
  WARNING: Pump WellPump#2 closed because cannot deliver head at 4:30:00 hrs.
  WARNING: Pump WellPump#3 closed because cannot deliver head at 4:30:00 hrs.
  WARNING: Pump WellPump#4 closed because cannot deliver head at 4:30:00 hrs.
  WARNING: Pump ResvrPump closed because cannot deliver head at 4:30:00 hrs.
   
     4:36:00: Pump HSP#3 changed by rule 6
     4:36:00: Balanced after 29 trials
     4:36:00: Reservoir Aquifer is emptying
     4:36:00: Reservoir SurfaceResrvr is emptying
     4:36:00: Tank Tank is filling at 109.81 ft
     4:36:00: CV 1 changed from closed to open
     4:36:00: Pump HSP#3 changed from closed to open
   
     4:42:00: Pump HSP#3 changed by rule 7
     4:42:00: Balanced after 5 trials
     4:42:00: Reservoir Aquifer is closed
     4:42:00: Reservoir SurfaceResrvr is closed
     4:42:00: Tank Tank is emptying at 110.00 ft
     4:42:00: CV 1 changed from open to closed
     4:42:00: Pump HSP#3 changed from open to closed
   
  WARNING: Pump WellPump#1 closed because cannot deliver head at 4:42:00 hrs.
  WARNING: Pump WellPump#2 closed because cannot deliver head at 4:42:00 hrs.
  WARNING: Pump WellPump#3 closed because cannot deliver head at 4:42:00 hrs.
  WARNING: Pump WellPump#4 closed because cannot deliver head at 4:42:00 hrs.
  WARNING: Pump ResvrPump closed because cannot deliver head at 4:42:00 hrs.
   
     4:48:00: Pump HSP#3 changed by rule 6
     4:48:00: Balanced after 29 trials
     4:48:00: Reservoir Aquifer is emptying
     4:48:00: Reservoir SurfaceResrvr is emptying
     4:48:00: Tank Tank is filling at 109.67 ft
     4:48:00: CV 1 changed from closed to open
     4:48:00: Pump HSP#3 changed from closed to open
   
     5:00:00: Pump HSP#3 changed by rule 7
     5:00:00: Balanced after 5 trials
     5:00:00: Reservoir Aquifer is closed
     5:00:00: Reservoir SurfaceResrvr is closed
     5:00:00: Tank Tank is emptying at 110.05 ft
     5:00:00: CV 1 changed from open to closed
     5:00:00: Pump HSP#3 changed from open to closed
   
  WARNING: Pump WellPump#1 closed because cannot deliver head at 5:00:00 hrs.
  WARNING: Pump WellPump#2 closed because cannot deliver head at 5:00:00 hrs.
  WARNING: Pump WellPump#3 closed because cannot deliver head at 5:00:00 hrs.
  WARNING: Pump WellPump#4 closed because cannot deliver head at 5:00:00 hrs.
  WARNING: Pump ResvrPump closed because cannot deliver head at 5:00:00 hrs.
   
     5:06:00: Pump HSP#3 changed by rule 6
     5:06:00: Balanced after 26 trials
     5:06:00: Reservoir Aquifer is emptying
     5:06:00: Reservoir SurfaceResrvr is emptying
     5:06:00: Tank Tank is filling at 109.63 ft
     5:06:00: CV 1 changed from closed to open
     5:06:00: Pump HSP#3 changed from closed to open
   
     5:30:00: Pump HSP#3 changed by rule 7
     5:30:00: Balanced after 5 trials
     5:30:00: Reservoir Aquifer is closed
     5:30:00: Reservoir SurfaceResrvr is closed
     5:30:00: Tank Tank is emptying at 110.09 ft
     5:30:00: CV 1 changed from open to closed
     5:30:00: Pump HSP#3 changed from open to closed
   
  WARNING: Pump WellPump#1 closed because cannot deliver head at 5:30:00 hrs.
  WARNING: Pump WellPump#2 closed because cannot deliver head at 5:30:00 hrs.
  WARNING: Pump WellPump#3 closed because cannot deliver head at 5:30:00 hrs.
  WARNING: Pump WellPump#4 closed because cannot deliver head at 5:30:00 hrs.
  WARNING: Pump ResvrPump closed because cannot deliver head at 5:30:00 hrs.
   
     5:36:00: Pump HSP#3 changed by rule 6
     5:36:00: Balanced after 26 trials
     5:36:00: Reservoir Aquifer is emptying
     5:36:00: Reservoir SurfaceResrvr is emptying
     5:36:00: Tank Tank is filling at 109.67 ft
     5:36:00: CV 1 changed from closed to open
     5:36:00: Pump HSP#3 changed from closed to open
   
     5:54:00: Pump HSP#3 changed by rule 7
     5:54:00: Balanced after 5 trials
     5:54:00: Reservoir Aquifer is closed
     5:54:00: Reservoir SurfaceResrvr is closed
     5:54:00: Tank Tank is emptying at 110.01 ft
     5:54:00: CV 1 changed from open to closed
     5:54:00: Pump HSP#3 changed from open to closed
   
  WARNING: Pump WellPump#1 closed because cannot deliver head at 5:54:00 hrs.
  WARNING: Pump WellPump#2 closed because cannot deliver head at 5:54:00 hrs.
  WARNING: Pump WellPump#3 closed because cannot deliver head at 5:54:00 hrs.
  WARNING: Pump WellPump#4 closed because cannot deliver head at 5:54:00 hrs.
  WARNING: Pump ResvrPump closed because cannot deliver head at 5:54:00 hrs.
   
     6:00:00: Pump HSP#1 changed by rule 3
     6:00:00: Balanced after 28 trials
     6:00:00: Reservoir Aquifer is emptying
     6:00:00: Reservoir SurfaceResrvr is emptying
     6:00:00: Tank Tank is filling at 109.60 ft
     6:00:00: CV 1 changed from closed to open
     6:00:00: Pump HSP#1 changed from closed to open
   
     7:00:00: Balanced after 3 trials
   
     8:00:00: Pump HSP#1 changed by rule 7
     8:00:00: Balanced after 5 trials
     8:00:00: Reservoir Aquifer is closed
     8:00:00: Reservoir SurfaceResrvr is closed
     8:00:00: Tank Tank is emptying at 110.52 ft
     8:00:00: CV 1 changed from open to closed
     8:00:00: Pump HSP#1 changed from open to closed
   
  WARNING: Pump WellPump#1 closed because cannot deliver head at 8:00:00 hrs.
  WARNING: Pump WellPump#2 closed because cannot deliver head at 8:00:00 hrs.
  WARNING: Pump WellPump#3 closed because cannot deliver head at 8:00:00 hrs.
  WARNING: Pump WellPump#4 closed because cannot deliver head at 8:00:00 hrs.
  WARNING: Pump ResvrPump closed because cannot deliver head at 8:00:00 hrs.
   
     8:06:00: Pump HSP#3 changed by rule 6
     8:06:00: Balanced after 13 trials
     8:06:00: Reservoir Aquifer is emptying
     8:06:00: Reservoir SurfaceResrvr is emptying
     8:06:00: CV 1 changed from closed to open
     8:06:00: Pump HSP#3 changed from closed to open
   
     9:00:00: Balanced after 3 trials
   
    10:00:00: Balanced after 3 trials
   
    11:00:00: Balanced after 2 trials
   
    12:00:00: Balanced after 2 trials
   
    13:00:00: Balanced after 3 trials
   
    14:00:00: Balanced after 3 trials
   
    15:00:00: Balanced after 3 trials
   
    16:00:00: Balanced after 2 trials
   
    17:00:00: Balanced after 2 trials
   
    18:00:00: Balanced after 3 trials
   
    19:00:00: Balanced after 3 trials
   
    20:00:00: Balanced after 3 trials
    20:00:00: Tank Tank is filling at 104.00 ft
   
    21:00:00: Balanced after 4 trials
   
    22:00:00: Balanced after 3 trials
   
    23:00:00: Balanced after 3 trials
   
    23:06:00: Pump HSP#3 changed by rule 7
    23:06:00: Balanced after 5 trials
    23:06:00: Reservoir Aquifer is closed
    23:06:00: Reservoir SurfaceResrvr is closed
    23:06:00: Tank Tank is emptying at 110.24 ft
    23:06:00: CV 1 changed from open to closed
    23:06:00: Pump HSP#3 changed from open to closed
   
  WARNING: Pump WellPump#1 closed because cannot deliver head at 23:06:00 hrs.
  WARNING: Pump WellPump#2 closed because cannot deliver head at 23:06:00 hrs.
  WARNING: Pump WellPump#3 closed because cannot deliver head at 23:06:00 hrs.
  WARNING: Pump WellPump#4 closed because cannot deliver head at 23:06:00 hrs.
  WARNING: Pump ResvrPump closed because cannot deliver head at 23:06:00 hrs.
   
    23:12:00: Pump HSP#3 changed by rule 6
    23:12:00: Balanced after 10 trials
    23:12:00: Reservoir Aquifer is emptying
    23:12:00: Reservoir SurfaceResrvr is emptying
    23:12:00: Tank Tank is filling at 110.00 ft
    23:12:00: CV 1 changed from closed to open
    23:12:00: Pump HSP#3 changed from closed to open
   
    23:18:00: Pump HSP#3 changed by rule 7
    23:18:00: Balanced after 5 trials
    23:18:00: Reservoir Aquifer is closed
    23:18:00: Reservoir SurfaceResrvr is closed
    23:18:00: Tank Tank is emptying at 110.28 ft
    23:18:00: CV 1 changed from open to closed
    23:18:00: Pump HSP#3 changed from open to closed
   
  WARNING: Pump WellPump#1 closed because cannot deliver head at 23:18:00 hrs.
  WARNING: Pump WellPump#2 closed because cannot deliver head at 23:18:00 hrs.
  WARNING: Pump WellPump#3 closed because cannot deliver head at 23:18:00 hrs.
  WARNING: Pump WellPump#4 closed because cannot deliver head at 23:18:00 hrs.
  WARNING: Pump ResvrPump closed because cannot deliver head at 23:18:00 hrs.
   
    23:30:00: Pump HSP#3 changed by rule 6
    23:30:00: Balanced after 10 trials
    23:30:00: Reservoir Aquifer is emptying
    23:30:00: Reservoir SurfaceResrvr is emptying
    23:30:00: Tank Tank is filling at 109.80 ft
    23:30:00: CV 1 changed from closed to open
    23:30:00: Pump HSP#3 changed from closed to open
   
    23:36:00: Pump HSP#3 changed by rule 7
    23:36:00: Balanced after 5 trials
    23:36:00: Reservoir Aquifer is closed
    23:36:00: Reservoir SurfaceResrvr is closed
    23:36:00: Tank Tank is emptying at 110.09 ft
    23:36:00: CV 1 changed from open to closed
    23:36:00: Pump HSP#3 changed from open to closed
   
  WARNING: Pump WellPump#1 closed because cannot deliver head at 23:36:00 hrs.
  WARNING: Pump WellPump#2 closed because cannot deliver head at 23:36:00 hrs.
  WARNING: Pump WellPump#3 closed because cannot deliver head at 23:36:00 hrs.
  WARNING: Pump WellPump#4 closed because cannot deliver head at 23:36:00 hrs.
  WARNING: Pump ResvrPump closed because cannot deliver head at 23:36:00 hrs.
   
    23:42:00: Pump HSP#3 changed by rule 6
    23:42:00: Balanced after 10 trials
    23:42:00: Reservoir Aquifer is emptying
    23:42:00: Reservoir SurfaceResrvr is emptying
    23:42:00: Tank Tank is filling at 109.85 ft
    23:42:00: CV 1 changed from closed to open
    23:42:00: Pump HSP#3 changed from closed to open
   
    23:48:00: Pump HSP#3 changed by rule 7
    23:48:00: Balanced after 5 trials
    23:48:00: Reservoir Aquifer is closed
    23:48:00: Reservoir SurfaceResrvr is closed
    23:48:00: Tank Tank is emptying at 110.13 ft
    23:48:00: CV 1 changed from open to closed
    23:48:00: Pump HSP#3 changed from open to closed
   
  WARNING: Pump WellPump#1 closed because cannot deliver head at 23:48:00 hrs.
  WARNING: Pump WellPump#2 closed because cannot deliver head at 23:48:00 hrs.
  WARNING: Pump WellPump#3 closed because cannot deliver head at 23:48:00 hrs.
  WARNING: Pump WellPump#4 closed because cannot deliver head at 23:48:00 hrs.
   
    23:54:00: Pump HSP#3 changed by rule 6
    23:54:00: Balanced after 10 trials
    23:54:00: Reservoir Aquifer is emptying
    23:54:00: Reservoir SurfaceResrvr is emptying
    23:54:00: Tank Tank is filling at 109.89 ft
    23:54:00: CV 1 changed from closed to open
    23:54:00: Pump HSP#3 changed from closed to open
   
    24:00:00: Pump HSP#3 changed by rule 7
    24:00:00: Balanced after 5 trials
    24:00:00: Reservoir Aquifer is closed
    24:00:00: Reservoir SurfaceResrvr is closed
    24:00:00: Tank Tank is emptying at 110.17 ft
    24:00:00: CV 1 changed from open to closed
    24:00:00: Pump HSP#3 changed from open to closed
   
  WARNING: Pump WellPump#1 closed because cannot deliver head at 24:00:00 hrs.
  WARNING: Pump WellPump#2 closed because cannot deliver head at 24:00:00 hrs.
  WARNING: Pump WellPump#3 closed because cannot deliver head at 24:00:00 hrs.
  WARNING: Pump WellPump#4 closed because cannot deliver head at 24:00:00 hrs.
  WARNING: Pump ResvrPump closed because cannot deliver head at 24:00:00 hrs.
   
    24:06:00: Pump HSP#3 changed by rule 6
    24:06:00: Balanced after 10 trials
    24:06:00: Reservoir Aquifer is emptying
    24:06:00: Reservoir SurfaceResrvr is emptying
    24:06:00: Tank Tank is filling at 109.95 ft
    24:06:00: CV 1 changed from closed to open
    24:06:00: Pump HSP#3 changed from closed to open
   
    24:12:00: Pump HSP#3 changed by rule 7
    24:12:00: Balanced after 5 trials
    24:12:00: Reservoir Aquifer is closed
    24:12:00: Reservoir SurfaceResrvr is closed
    24:12:00: Tank Tank is emptying at 110.25 ft
    24:12:00: CV 1 changed from open to closed
    24:12:00: Pump HSP#3 changed from open to closed
   
  WARNING: Pump WellPump#1 closed because cannot deliver head at 24:12:00 hrs.
  WARNING: Pump WellPump#2 closed because cannot deliver head at 24:12:00 hrs.
  WARNING: Pump WellPump#3 closed because cannot deliver head at 24:12:00 hrs.
  WARNING: Pump WellPump#4 closed because cannot deliver head at 24:12:00 hrs.
  WARNING: Pump ResvrPump closed because cannot deliver head at 24:12:00 hrs.
   
    24:24:00: Pump HSP#3 changed by rule 6
    24:24:00: Balanced after 10 trials
    24:24:00: Reservoir Aquifer is emptying
    24:24:00: Reservoir SurfaceResrvr is emptying
    24:24:00: Tank Tank is filling at 109.80 ft
    24:24:00: CV 1 changed from closed to open
    24:24:00: Pump HSP#3 changed from closed to open
   
    24:30:00: Pump HSP#3 changed by rule 7
    24:30:00: Balanced after 5 trials
    24:30:00: Reservoir Aquifer is closed
    24:30:00: Reservoir SurfaceResrvr is closed
    24:30:00: Tank Tank is emptying at 110.10 ft
    24:30:00: CV 1 changed from open to closed
    24:30:00: Pump HSP#3 changed from open to closed
   
  WARNING: Pump WellPump#1 closed because cannot deliver head at 24:30:00 hrs.
  WARNING: Pump WellPump#2 closed because cannot deliver head at 24:30:00 hrs.
  WARNING: Pump WellPump#3 closed because cannot deliver head at 24:30:00 hrs.
  WARNING: Pump WellPump#4 closed because cannot deliver head at 24:30:00 hrs.
  WARNING: Pump ResvrPump closed because cannot deliver head at 24:30:00 hrs.
   
    24:36:00: Pump HSP#3 changed by rule 6
    24:36:00: Balanced after 10 trials
    24:36:00: Reservoir Aquifer is emptying
    24:36:00: Reservoir SurfaceResrvr is emptying
    24:36:00: Tank Tank is filling at 109.88 ft
    24:36:00: CV 1 changed from closed to open
    24:36:00: Pump HSP#3 changed from closed to open
   
    24:42:00: Pump HSP#3 changed by rule 7
    24:42:00: Balanced after 5 trials
    24:42:00: Reservoir Aquifer is closed
    24:42:00: Reservoir SurfaceResrvr is closed
    24:42:00: Tank Tank is emptying at 110.18 ft
    24:42:00: CV 1 changed from open to closed
    24:42:00: Pump HSP#3 changed from open to closed
   
  WARNING: Pump WellPump#1 closed because cannot deliver head at 24:42:00 hrs.
  WARNING: Pump WellPump#2 closed because cannot deliver head at 24:42:00 hrs.
  WARNING: Pump WellPump#3 closed because cannot deliver head at 24:42:00 hrs.
  WARNING: Pump WellPump#4 closed because cannot deliver head at 24:42:00 hrs.
  WARNING: Pump ResvrPump closed because cannot deliver head at 24:42:00 hrs.
   
    24:48:00: Pump HSP#3 changed by rule 6
    24:48:00: Balanced after 10 trials
    24:48:00: Reservoir Aquifer is emptying
    24:48:00: Reservoir SurfaceResrvr is emptying
    24:48:00: Tank Tank is filling at 109.96 ft
    24:48:00: CV 1 changed from closed to open
    24:48:00: Pump HSP#3 changed from closed to open
   
    24:54:00: Pump HSP#3 changed by rule 7
    24:54:00: Balanced after 5 trials
    24:54:00: Reservoir Aquifer is closed
    24:54:00: Reservoir SurfaceResrvr is closed
    24:54:00: Tank Tank is emptying at 110.26 ft
    24:54:00: CV 1 changed from open to closed
    24:54:00: Pump HSP#3 changed from open to closed
   
  WARNING: Pump WellPump#1 closed because cannot deliver head at 24:54:00 hrs.
  WARNING: Pump WellPump#2 closed because cannot deliver head at 24:54:00 hrs.
  WARNING: Pump WellPump#3 closed because cannot deliver head at 24:54:00 hrs.
  WARNING: Pump WellPump#4 closed because cannot deliver head at 24:54:00 hrs.
  WARNING: Pump ResvrPump closed because cannot deliver head at 24:54:00 hrs.
   
    25:00:00: Balanced after 1 trials
   
  WARNING: Pump WellPump#1 closed because cannot deliver head at 25:00:00 hrs.
  WARNING: Pump WellPump#2 closed because cannot deliver head at 25:00:00 hrs.
  WARNING: Pump WellPump#3 closed because cannot deliver head at 25:00:00 hrs.
  WARNING: Pump WellPump#4 closed because cannot deliver head at 25:00:00 hrs.
  WARNING: Pump ResvrPump closed because cannot deliver head at 25:00:00 hrs.
   
    25:06:00: Pump HSP#3 changed by rule 6
    25:06:00: Balanced after 10 trials
    25:06:00: Reservoir Aquifer is emptying
    25:06:00: Reservoir SurfaceResrvr is emptying
    25:06:00: Tank Tank is filling at 109.81 ft
    25:06:00: CV 1 changed from closed to open
    25:06:00: Pump HSP#3 changed from closed to open
   
    25:12:00: Pump HSP#3 changed by rule 7
    25:12:00: Balanced after 5 trials
    25:12:00: Reservoir Aquifer is closed
    25:12:00: Reservoir SurfaceResrvr is closed
    25:12:00: Tank Tank is emptying at 110.11 ft
    25:12:00: CV 1 changed from open to closed
    25:12:00: Pump HSP#3 changed from open to closed
   
  WARNING: Pump WellPump#1 closed because cannot deliver head at 25:12:00 hrs.
  WARNING: Pump WellPump#2 closed because cannot deliver head at 25:12:00 hrs.
  WARNING: Pump WellPump#3 closed because cannot deliver head at 25:12:00 hrs.
  WARNING: Pump WellPump#4 closed because cannot deliver head at 25:12:00 hrs.
   
    25:18:00: Pump HSP#3 changed by rule 6
    25:18:00: Balanced after 10 trials
    25:18:00: Reservoir Aquifer is emptying
    25:18:00: Reservoir SurfaceResrvr is emptying
    25:18:00: Tank Tank is filling at 109.88 ft
    25:18:00: CV 1 changed from closed to open
    25:18:00: Pump HSP#3 changed from closed to open
   
    25:24:00: Pump HSP#3 changed by rule 7
    25:24:00: Balanced after 5 trials
    25:24:00: Reservoir Aquifer is closed
    25:24:00: Reservoir SurfaceResrvr is closed
    25:24:00: Tank Tank is emptying at 110.19 ft
    25:24:00: CV 1 changed from open to closed
    25:24:00: Pump HSP#3 changed from open to closed
   
  WARNING: Pump WellPump#1 closed because cannot deliver head at 25:24:00 hrs.
  WARNING: Pump WellPump#2 closed because cannot deliver head at 25:24:00 hrs.
  WARNING: Pump WellPump#3 closed because cannot deliver head at 25:24:00 hrs.
  WARNING: Pump WellPump#4 closed because cannot deliver head at 25:24:00 hrs.
  WARNING: Pump ResvrPump closed because cannot deliver head at 25:24:00 hrs.
   
    25:30:00: Pump HSP#3 changed by rule 6
    25:30:00: Balanced after 10 trials
    25:30:00: Reservoir Aquifer is emptying
    25:30:00: Reservoir SurfaceResrvr is emptying
    25:30:00: Tank Tank is filling at 109.96 ft
    25:30:00: CV 1 changed from closed to open
    25:30:00: Pump HSP#3 changed from closed to open
   
    25:36:00: Pump HSP#3 changed by rule 7
    25:36:00: Balanced after 5 trials
    25:36:00: Reservoir Aquifer is closed
    25:36:00: Reservoir SurfaceResrvr is closed
    25:36:00: Tank Tank is emptying at 110.26 ft
    25:36:00: CV 1 changed from open to closed
    25:36:00: Pump HSP#3 changed from open to closed
   
  WARNING: Pump WellPump#1 closed because cannot deliver head at 25:36:00 hrs.
  WARNING: Pump WellPump#2 closed because cannot deliver head at 25:36:00 hrs.
  WARNING: Pump WellPump#3 closed because cannot deliver head at 25:36:00 hrs.
  WARNING: Pump WellPump#4 closed because cannot deliver head at 25:36:00 hrs.
  WARNING: Pump ResvrPump closed because cannot deliver head at 25:36:00 hrs.
   
    25:48:00: Pump HSP#3 changed by rule 6
    25:48:00: Balanced after 10 trials
    25:48:00: Reservoir Aquifer is emptying
    25:48:00: Reservoir SurfaceResrvr is emptying
    25:48:00: Tank Tank is filling at 109.81 ft
    25:48:00: CV 1 changed from closed to open
    25:48:00: Pump HSP#3 changed from closed to open
   
    25:54:00: Pump HSP#3 changed by rule 7
    25:54:00: Balanced after 5 trials
    25:54:00: Reservoir Aquifer is closed
    25:54:00: Reservoir SurfaceResrvr is closed
    25:54:00: Tank Tank is emptying at 110.11 ft
    25:54:00: CV 1 changed from open to closed
    25:54:00: Pump HSP#3 changed from open to closed
   
  WARNING: Pump WellPump#1 closed because cannot deliver head at 25:54:00 hrs.
  WARNING: Pump WellPump#2 closed because cannot deliver head at 25:54:00 hrs.
  WARNING: Pump WellPump#3 closed because cannot deliver head at 25:54:00 hrs.
  WARNING: Pump WellPump#4 closed because cannot deliver head at 25:54:00 hrs.
  WARNING: Pump ResvrPump closed because cannot deliver head at 25:54:00 hrs.
   
    26:00:00: Pump HSP#3 changed by rule 6
    26:00:00: Balanced after 10 trials
    26:00:00: Reservoir Aquifer is emptying
    26:00:00: Reservoir SurfaceResrvr is emptying
    26:00:00: Tank Tank is filling at 109.89 ft
    26:00:00: CV 1 changed from closed to open
    26:00:00: Pump HSP#3 changed from closed to open
   
    26:06:00: Pump HSP#3 changed by rule 7
    26:06:00: Balanced after 5 trials
    26:06:00: Reservoir Aquifer is closed
    26:06:00: Reservoir SurfaceResrvr is closed
    26:06:00: Tank Tank is emptying at 110.18 ft
    26:06:00: CV 1 changed from open to closed
    26:06:00: Pump HSP#3 changed from open to closed
   
  WARNING: Pump WellPump#1 closed because cannot deliver head at 26:06:00 hrs.
  WARNING: Pump WellPump#2 closed because cannot deliver head at 26:06:00 hrs.
  WARNING: Pump WellPump#3 closed because cannot deliver head at 26:06:00 hrs.
  WARNING: Pump WellPump#4 closed because cannot deliver head at 26:06:00 hrs.
  WARNING: Pump ResvrPump closed because cannot deliver head at 26:06:00 hrs.
   
    26:12:00: Pump HSP#3 changed by rule 6
    26:12:00: Balanced after 10 trials
    26:12:00: Reservoir Aquifer is emptying
    26:12:00: Reservoir SurfaceResrvr is emptying
    26:12:00: Tank Tank is filling at 109.95 ft
    26:12:00: CV 1 changed from closed to open
    26:12:00: Pump HSP#3 changed from closed to open
   
    26:18:00: Pump HSP#3 changed by rule 7
    26:18:00: Balanced after 5 trials
    26:18:00: Reservoir Aquifer is closed
    26:18:00: Reservoir SurfaceResrvr is closed
    26:18:00: Tank Tank is emptying at 110.24 ft
    26:18:00: CV 1 changed from open to closed
    26:18:00: Pump HSP#3 changed from open to closed
   
  WARNING: Pump WellPump#1 closed because cannot deliver head at 26:18:00 hrs.
  WARNING: Pump WellPump#2 closed because cannot deliver head at 26:18:00 hrs.
  WARNING: Pump WellPump#3 closed because cannot deliver head at 26:18:00 hrs.
  WARNING: Pump WellPump#4 closed because cannot deliver head at 26:18:00 hrs.
  WARNING: Pump ResvrPump closed because cannot deliver head at 26:18:00 hrs.
   
    26:30:00: Pump HSP#3 changed by rule 6
    26:30:00: Balanced after 10 trials
    26:30:00: Reservoir Aquifer is emptying
    26:30:00: Reservoir SurfaceResrvr is emptying
    26:30:00: Tank Tank is filling at 109.77 ft
    26:30:00: CV 1 changed from closed to open
    26:30:00: Pump HSP#3 changed from closed to open
   
    26:36:00: Pump HSP#3 changed by rule 7
    26:36:00: Balanced after 5 trials
    26:36:00: Reservoir Aquifer is closed
    26:36:00: Reservoir SurfaceResrvr is closed
    26:36:00: Tank Tank is emptying at 110.06 ft
    26:36:00: CV 1 changed from open to closed
    26:36:00: Pump HSP#3 changed from open to closed
   
  WARNING: Pump WellPump#1 closed because cannot deliver head at 26:36:00 hrs.
  WARNING: Pump WellPump#2 closed because cannot deliver head at 26:36:00 hrs.
  WARNING: Pump WellPump#3 closed because cannot deliver head at 26:36:00 hrs.
  WARNING: Pump WellPump#4 closed because cannot deliver head at 26:36:00 hrs.
  WARNING: Pump ResvrPump closed because cannot deliver head at 26:36:00 hrs.
   
    26:42:00: Pump HSP#3 changed by rule 6
    26:42:00: Balanced after 10 trials
    26:42:00: Reservoir Aquifer is emptying
    26:42:00: Reservoir SurfaceResrvr is emptying
    26:42:00: Tank Tank is filling at 109.83 ft
    26:42:00: CV 1 changed from closed to open
    26:42:00: Pump HSP#3 changed from closed to open
   
    26:48:00: Pump HSP#3 changed by rule 7
    26:48:00: Balanced after 5 trials
    26:48:00: Reservoir Aquifer is closed
    26:48:00: Reservoir SurfaceResrvr is closed
    26:48:00: Tank Tank is emptying at 110.12 ft
    26:48:00: CV 1 changed from open to closed
    26:48:00: Pump HSP#3 changed from open to closed
   
  WARNING: Pump WellPump#1 closed because cannot deliver head at 26:48:00 hrs.
  WARNING: Pump WellPump#2 closed because cannot deliver head at 26:48:00 hrs.
  WARNING: Pump WellPump#3 closed because cannot deliver head at 26:48:00 hrs.
  WARNING: Pump WellPump#4 closed because cannot deliver head at 26:48:00 hrs.
  WARNING: Pump ResvrPump closed because cannot deliver head at 26:48:00 hrs.
   
    26:54:00: Pump HSP#3 changed by rule 6
    26:54:00: Balanced after 10 trials
    26:54:00: Reservoir Aquifer is emptying
    26:54:00: Reservoir SurfaceResrvr is emptying
    26:54:00: Tank Tank is filling at 109.88 ft
    26:54:00: CV 1 changed from closed to open
    26:54:00: Pump HSP#3 changed from closed to open
   
    27:00:00: Pump HSP#3 changed by rule 7
    27:00:00: Balanced after 5 trials
    27:00:00: Reservoir Aquifer is closed
    27:00:00: Reservoir SurfaceResrvr is closed
    27:00:00: Tank Tank is emptying at 110.17 ft
    27:00:00: CV 1 changed from open to closed
    27:00:00: Pump HSP#3 changed from open to closed
   
  WARNING: Pump WellPump#1 closed because cannot deliver head at 27:00:00 hrs.
  WARNING: Pump WellPump#2 closed because cannot deliver head at 27:00:00 hrs.
  WARNING: Pump WellPump#3 closed because cannot deliver head at 27:00:00 hrs.
  WARNING: Pump WellPump#4 closed because cannot deliver head at 27:00:00 hrs.
  WARNING: Pump ResvrPump closed because cannot deliver head at 27:00:00 hrs.
   
    27:06:00: Pump HSP#3 changed by rule 6
    27:06:00: Balanced after 17 trials
    27:06:00: Reservoir Aquifer is emptying
    27:06:00: Reservoir SurfaceResrvr is emptying
    27:06:00: Tank Tank is filling at 109.91 ft
    27:06:00: CV 1 changed from closed to open
    27:06:00: Pump HSP#3 changed from closed to open
   
    27:12:00: Pump HSP#3 changed by rule 7
    27:12:00: Balanced after 5 trials
    27:12:00: Reservoir Aquifer is closed
    27:12:00: Reservoir SurfaceResrvr is closed
    27:12:00: Tank Tank is emptying at 110.17 ft
    27:12:00: CV 1 changed from open to closed
    27:12:00: Pump HSP#3 changed from open to closed
   
  WARNING: Pump WellPump#1 closed because cannot deliver head at 27:12:00 hrs.
  WARNING: Pump WellPump#2 closed because cannot deliver head at 27:12:00 hrs.
  WARNING: Pump WellPump#3 closed because cannot deliver head at 27:12:00 hrs.
  WARNING: Pump WellPump#4 closed because cannot deliver head at 27:12:00 hrs.
  WARNING: Pump ResvrPump closed because cannot deliver head at 27:12:00 hrs.
   
    27:18:00: Pump HSP#3 changed by rule 6
    27:18:00: Balanced after 17 trials
    27:18:00: Reservoir Aquifer is emptying
    27:18:00: Reservoir SurfaceResrvr is emptying
    27:18:00: Tank Tank is filling at 109.90 ft
    27:18:00: CV 1 changed from closed to open
    27:18:00: Pump HSP#3 changed from closed to open
   
    27:24:00: Pump HSP#3 changed by rule 7
    27:24:00: Balanced after 5 trials
    27:24:00: Reservoir Aquifer is closed
    27:24:00: Reservoir SurfaceResrvr is closed
    27:24:00: Tank Tank is emptying at 110.16 ft
    27:24:00: CV 1 changed from open to closed
    27:24:00: Pump HSP#3 changed from open to closed
   
  WARNING: Pump WellPump#1 closed because cannot deliver head at 27:24:00 hrs.
  WARNING: Pump WellPump#2 closed because cannot deliver head at 27:24:00 hrs.
  WARNING: Pump WellPump#3 closed because cannot deliver head at 27:24:00 hrs.
  WARNING: Pump WellPump#4 closed because cannot deliver head at 27:24:00 hrs.
  WARNING: Pump ResvrPump closed because cannot deliver head at 27:24:00 hrs.
   
    27:30:00: Pump HSP#3 changed by rule 6
    27:30:00: Balanced after 17 trials
    27:30:00: Reservoir Aquifer is emptying
    27:30:00: Reservoir SurfaceResrvr is emptying
    27:30:00: Tank Tank is filling at 109.90 ft
    27:30:00: CV 1 changed from closed to open
    27:30:00: Pump HSP#3 changed from closed to open
   
    27:36:00: Pump HSP#3 changed by rule 7
    27:36:00: Balanced after 5 trials
    27:36:00: Reservoir Aquifer is closed
    27:36:00: Reservoir SurfaceResrvr is closed
    27:36:00: Tank Tank is emptying at 110.16 ft
    27:36:00: CV 1 changed from open to closed
    27:36:00: Pump HSP#3 changed from open to closed
   
  WARNING: Pump WellPump#1 closed because cannot deliver head at 27:36:00 hrs.
  WARNING: Pump WellPump#2 closed because cannot deliver head at 27:36:00 hrs.
  WARNING: Pump WellPump#3 closed because cannot deliver head at 27:36:00 hrs.
  WARNING: Pump WellPump#4 closed because cannot deliver head at 27:36:00 hrs.
  WARNING: Pump ResvrPump closed because cannot deliver head at 27:36:00 hrs.
   
    27:42:00: Pump HSP#3 changed by rule 6
    27:42:00: Balanced after 17 trials
    27:42:00: Reservoir Aquifer is emptying
    27:42:00: Reservoir SurfaceResrvr is emptying
    27:42:00: Tank Tank is filling at 109.90 ft
    27:42:00: CV 1 changed from closed to open
    27:42:00: Pump HSP#3 changed from closed to open
   
    27:48:00: Pump HSP#3 changed by rule 7
    27:48:00: Balanced after 5 trials
    27:48:00: Reservoir Aquifer is closed
    27:48:00: Reservoir SurfaceResrvr is closed
    27:48:00: Tank Tank is emptying at 110.16 ft
    27:48:00: CV 1 changed from open to closed
    27:48:00: Pump HSP#3 changed from open to closed
   
  WARNING: Pump WellPump#1 closed because cannot deliver head at 27:48:00 hrs.
  WARNING: Pump WellPump#2 closed because cannot deliver head at 27:48:00 hrs.
  WARNING: Pump WellPump#3 closed because cannot deliver head at 27:48:00 hrs.
  WARNING: Pump WellPump#4 closed because cannot deliver head at 27:48:00 hrs.
  WARNING: Pump ResvrPump closed because cannot deliver head at 27:48:00 hrs.
   
    27:54:00: Pump HSP#3 changed by rule 6
    27:54:00: Balanced after 17 trials
    27:54:00: Reservoir Aquifer is emptying
    27:54:00: Reservoir SurfaceResrvr is emptying
    27:54:00: Tank Tank is filling at 109.89 ft
    27:54:00: CV 1 changed from closed to open
    27:54:00: Pump HSP#3 changed from closed to open
   
    28:00:00: Pump HSP#3 changed by rule 7
    28:00:00: Balanced after 5 trials
    28:00:00: Reservoir Aquifer is closed
    28:00:00: Reservoir SurfaceResrvr is closed
    28:00:00: Tank Tank is emptying at 110.15 ft
    28:00:00: CV 1 changed from open to closed
    28:00:00: Pump HSP#3 changed from open to closed
   
  WARNING: Pump WellPump#1 closed because cannot deliver head at 28:00:00 hrs.
  WARNING: Pump WellPump#2 closed because cannot deliver head at 28:00:00 hrs.
  WARNING: Pump WellPump#3 closed because cannot deliver head at 28:00:00 hrs.
  WARNING: Pump WellPump#4 closed because cannot deliver head at 28:00:00 hrs.
  WARNING: Pump ResvrPump closed because cannot deliver head at 28:00:00 hrs.
   
  Water Quality Mass Balance (mg)
  ================================
  Initial Mass:      0.00000e+000
  Mass Inflow:       3.34800e+010
  Mass Outflow:      2.08352e+010
  Mass Reacted:      0.00000e+000
  Final Mass:        1.26448e+010
  Mass Ratio:         1.00000
  ================================

   
  Node Results at 0:00:00 hrs:
  --------------------------------------------------------
                     Demand      Head  Pressure  Chemical
  Node                  gpm        ft       psi      mg/L
  --------------------------------------------------------
  IN0                  0.00   1155.52     51.79      0.00
  TN1                  3.40   1155.52     51.79      0.00
  IN2                  0.00   1155.55     50.93      0.00
  TN3                  4.69   1155.55     51.37      0.00
  IN4                  0.00   1155.60     50.96      0.00
  TN5                  0.52   1155.60     50.96      0.00
  IN6                  0.00   1155.61     50.96      0.00
  TN7                  5.32   1155.61     50.96      0.00
  IN8                  0.00   1155.56     50.94      0.00
  TN9                  0.52   1155.56     50.94      0.00
  IN10                 0.00   1155.52     51.79      0.00
  TN11                 8.75   1155.51     51.78      0.00
  TN13                 0.52   1155.64     50.97      0.00
  TN15                 5.32   1155.63     50.97      0.00
  IN16                 0.00   1155.65     51.41      0.00
  TN17                 3.13   1155.65     51.41      0.00
  TN19                 6.25   1155.65     51.84      0.00
  TN21                 3.75   1155.67     54.88      0.00
  TN23                 6.73   1155.66     54.88      0.00
  TN25                 0.52   1155.70     57.06      0.00
  TN27                 9.43   1155.73     57.95      0.00
  TN29                 4.38   1155.75     58.82      0.00
  TN31                 0.34   1155.63     54.00      0.00
  TN33                 0.21   1155.63     52.27      0.00
  IN34                 0.00   1155.65     51.84      0.00
  TN35                 0.14   1155.63     51.84      0.00
  TN37                 0.14   1155.63     51.40      0.00
  TN39                 0.07   1155.64     51.40      0.00
  TN41                 0.07   1155.63     51.40      0.00
  TN43                 0.41   1155.61     51.39      0.00
  IN44                 0.00   1155.64     51.41      0.00
  TN45                 0.27   1155.61     51.40      0.00
  TN47                 0.41   1155.61     51.39      0.00
  TN49                 0.14   1155.64     51.84      0.00
  TN51                 0.14   1155.65     51.85      0.00
  IN52                 0.00   1155.67     52.29      0.00
  TN53                 0.21   1155.64     52.28      0.00
  TN55                 0.21   1155.67     53.15      0.00
  TN57                 0.07   1155.68     53.59      0.00
  IN58                 0.00   1155.70     55.77      0.00
  TN59                 0.34   1155.67     54.02      0.00
  TN61                 0.27   1155.67     55.75      0.00
  TN63                 0.34   1155.61     50.96      0.00
  IN64                 0.00   1155.65     51.41      0.00
  TN65                 0.07   1155.64     51.41      0.00
  TN67                 0.21   1155.64     51.41      0.00
  IN68                 0.00   1155.66     51.85      0.00
  TN69                 0.07   1155.66     51.85      0.00
  TN71                 0.14   1155.66     51.85      0.00
  IN72                 0.00   1155.68     52.29      0.00
  TN73                 0.34   1155.65     52.28      0.00
  IN74                 0.00   1155.68     53.16      0.00
  TN75                 0.07   1155.68     53.16      0.00
  TN77                 0.34   1155.66     54.02      0.00
  TN79                 0.14   1155.69     55.76      0.00
  IN80                 0.00   1155.72     57.07      0.00
  TN81                 0.27   1155.70     56.63      0.00
  TN83                 0.21   1155.70     57.50      0.00
  TN85                 0.34   1155.68     56.62      0.00
  TN87                 0.27   1155.70     57.50      0.00
  TN89                 0.34   1155.72     57.94      0.00
  IN90                 0.00   1155.75     58.82      0.00
  TN91                 0.07   1155.74     58.82      0.00
  TN93                 0.41   1155.71     57.94      0.00
  TN95                 0.14   1155.73     59.25      0.00
  TN97                 0.14   1155.76     59.69      0.00
  IN98                 0.00   1155.78     59.70      0.00
  TN99                 0.07   1155.77     60.13      0.00
  TN101                0.27   1155.75     59.69      0.00
  TN103                0.14   1155.76     60.13      0.00
  IN104                0.00   1155.81     60.58      0.00
  TN105                0.14   1155.80     60.58      0.00
  TN107                0.07   1155.80     60.58      0.00
  TN109                0.27   1155.79     61.00      0.00
  IN110                0.00   1155.66     53.58      0.00
  TN111                0.07   1155.65     52.28      0.00
  TN113                0.21   1155.64     53.57      0.00
  TN115                0.34   1155.62     51.40      0.00
  TN117                0.21   1155.63     51.83      0.00
  IN118                0.00   1155.64     50.97      0.00
  TN119                0.34   1155.61     50.96      0.00
  IN120                0.00   1155.65     51.41      0.00
  TN121                0.07   1155.64     51.41      0.00
  IN122                0.00   1155.64     50.97      0.00
  TN123                0.27   1155.62     50.96      0.00
  TN125                0.27   1155.76     57.52      0.00
  TN127                0.14   1155.78     57.10      0.00
  TN129                0.27   1155.77     56.66      0.00
  TN131                0.41   1155.75     57.09      0.00
  TN133                0.34   1155.76     56.66      0.00
  TN135                0.27   1155.73     55.78      0.00
  TN137                0.27   1155.74     55.78      0.00
  TN139                0.27   1155.74     55.35      0.00
  IN140                0.00   1155.74     54.48      0.00
  TN141                0.14   1155.73     54.91      0.00
  TN143                0.07   1155.74     54.48      0.00
  TN145                0.14   1155.73     52.31      0.00
  TN147                0.21   1155.69     51.86      0.00
  TN149                0.41   1155.66     54.01      0.00
  IN150                0.00   1155.71     51.87      0.00
  TN151                0.41   1155.66     51.42      0.00
  IN152                0.00   1155.68     50.99      0.00
  TN153                0.41   1155.63     50.97      0.00
  TN155                0.34   1155.64     50.98      0.00
  TN157                0.14   1155.66     50.55      0.00
  TN159                0.21   1155.69     51.43      0.00
  TN161                0.14   1155.66     50.55      0.00
  IN162                0.00   1155.67     50.12      0.00
  TN163                0.34   1155.63     50.10      0.00
  IN164                0.00   1155.68     50.56      0.00
  TN165                0.41   1155.66     50.55      0.00
  TN166                0.14   1155.65     50.11      0.00
  TN167                0.21   1155.65     50.11      0.00
  TN169                0.41   1155.48     50.04      0.00
  TN170                0.34   1155.48     50.04      0.00
  TN171                0.34   1155.48     50.04      0.00
  IN172                0.00   1155.71     50.14      0.00
  TN173                0.41   1155.68     50.12      0.00
  IN174                0.00   1155.70     50.13      0.00
  TN175                0.21   1155.68     50.12      0.00
  IN176                0.00   1155.63     50.10      0.00
  TN177                0.21   1155.61     50.10      0.00
  IN178                0.00   1155.64     50.11      0.00
  TN179                0.27   1155.62     50.10      0.00
  TN181                0.21   1155.32     49.97      0.00
  TN182                0.27   1155.32     49.97      0.00
  TN183                0.27   1155.32     50.40      0.00
  TN184                0.21   1155.33     50.40      0.00
  TN186                0.27   1155.17     50.34      0.00
  TN187                0.07   1155.19     50.78      0.00
  TN188                0.21   1155.18     50.34      0.00
  TN189                0.34   1155.16     50.77      0.00
  TN191                0.34   1160.24     52.53      0.00
  TN193                0.41   1160.23     52.53      0.00
  TN195                0.21   1159.16     51.63      0.00
  TN197                0.21   1157.76     51.03      0.00
  TN199                0.21   1157.76     51.02      0.00
  TN201                0.14   1157.16     50.76      0.00
  TN203                0.34   1156.27     50.38      0.00
  TN205                0.14   1156.33     50.41      0.00
  TN207                0.27   1156.28     50.38      0.00
  TN209                0.21   1156.29     50.39      0.00
  TN211                0.14   1156.20     50.35      0.00
  TN213                0.21   1156.19     50.78      0.00
  TN215                0.41   1156.18     50.77      0.00
  TN217                0.21   1156.22     50.36      0.00
  TN219                0.34   1156.08     50.73      0.00
  TN221                0.41   1156.08     51.60      0.00
  TN222                0.27   1156.10     51.17      0.00
  TN224                0.34   1156.12     50.75      0.00
  TN226                0.07   1156.07     52.03      0.00
  TN227                0.41   1156.04     52.45      0.00
  TN228                0.21   1156.06     52.46      0.00
  TN230                0.14   1156.11     51.61      0.00
  TN232                0.34   1156.00     53.29      0.00
  TN234                0.41   1155.99     53.73      0.00
  TN236                0.41   1155.99     54.16      0.00
  TN238                0.41   1155.95     55.44      0.00
  TN239                0.27   1155.95     54.58      0.00
  TN240                0.34   1155.95     55.44      0.00
  TN242                0.07   1155.94     56.30      0.00
  TN243                0.14   1155.93     56.73      0.00
  TN244                0.34   1155.92     57.16      0.00
  TN245                0.27   1156.29     49.96      0.00
  IN246                0.00   1156.32     49.97      0.00
  TN247                0.07   1156.31     49.96      0.00
  TN248                0.14   1156.30     50.39      0.00
  TN249                0.27   1156.29     50.39      0.00
  IN250                0.00   1156.24     50.37      0.00
  TN251                0.14   1156.23     50.36      0.00
  TN252                0.41   1156.20     50.35      0.00
  TN253                0.14   1156.23     50.36      0.00
  TN254                0.07   1156.23     50.36      0.00
  IN255                0.00   1156.17     50.77      0.00
  TN256                0.21   1156.15     50.76      0.00
  TN257                0.27   1156.14     50.76      0.00
  TN258                0.21   1156.15     51.19      0.00
  TN259                0.27   1156.14     50.76      0.00
  TN261                0.14   1156.08     53.33      0.00
  TN262                0.14   1156.09     52.03      0.00
  TN263                0.14   1156.09     51.60      0.00
  TN264                0.14   1156.09     52.03      0.00
  IN265                0.00   1156.03     54.18      0.00
  TN266                0.34   1156.01     54.60      0.00
  TN267                0.34   1156.00     54.16      0.00
  TN268                0.34   1156.01     54.60      0.00
  TN269                0.34   1156.00     53.73      0.00
  TN271                0.41   1155.94     55.87      0.00
  TN272                0.41   1155.94     56.30      0.00
  TN273                0.34   1155.95     55.44      0.00
  TN274                0.34   1155.96     55.44      0.00
  TN276                0.41   1155.76     58.83      0.00
  TN278                0.41   1155.78     59.27      0.00
  TN280                0.21   1155.79     59.27      0.00
  TN282                0.07   1155.80     58.84      0.00
  TN284                0.27   1155.78     58.83      0.00
  TN286                0.07   1155.80     57.98      0.00
  TN288                0.41   1155.74     57.95      0.00
  TN290                0.41   1155.88     57.14      0.00
  TN291                0.27   1155.88     58.88      0.00
  TN293                0.07   1155.89     58.88      0.00
  TN294                0.27   1155.88     58.87      0.00
  TN295                0.07   1155.89     58.88      0.00
  TN297                0.34   1155.87     58.87      0.00
  TN299                0.27   1155.87     59.31      0.00
  TN300                0.34   1155.86     59.30      0.00
  TN302                0.27   1155.93     56.73      0.00
  TN303                0.27   1155.93     57.17      0.00
  TN304                0.14   1155.95     56.74      0.00
  TN305                0.14   1155.95     56.31      0.00
  TN307                0.41   1155.91     56.72      0.00
  TN308                0.41   1155.91     57.59      0.00
  TN309                0.14   1155.94     57.60      0.00
  TN310                0.14   1155.94     56.74      0.00
  IN311                0.00   1155.97     55.88      0.00
  TN312                0.41   1155.92     55.86      0.00
  TN313                0.41   1155.93     56.30      0.00
  TN314                0.27   1155.95     55.87      0.00
  TN315                0.27   1155.94     55.87      0.00
  IN316                0.00   1155.97     55.88      0.00
  TN317                0.14   1155.95     55.88      0.00
  TN318                0.14   1155.96     56.31      0.00
  TN319                0.27   1155.94     55.87      0.00
  TN320                0.27   1155.94     55.44      0.00
  IN321                0.00   1155.97     55.02      0.00
  TN322                0.14   1155.96     55.01      0.00
  TN323                0.14   1155.96     55.01      0.00
  TN324                0.27   1155.95     54.57      0.00
  TN325                0.27   1155.95     54.57      0.00
  IN326                0.00   1155.98     53.72      0.00
  TN327                0.41   1155.94     53.70      0.00
  TN328                0.41   1155.93     54.13      0.00
  TN329                0.14   1155.96     53.28      0.00
  TN330                0.14   1155.96     53.28      0.00
  IN331                0.00   1155.98     51.99      0.00
  TN332                0.07   1155.97     51.98      0.00
  TN333                0.07   1155.97     52.42      0.00
  TN334                0.07   1155.97     51.55      0.00
  TN335                0.07   1155.97     51.55      0.00
  IN336                0.00   1155.98     50.69      0.00
  TN337                0.21   1155.97     50.68      0.00
  TN338                0.21   1155.97     51.11      0.00
  TN339                0.27   1155.96     50.68      0.00
  TN340                0.27   1155.96     50.25      0.00
  IN341                0.00   1155.99     49.83      0.00
  TN342                0.07   1155.98     49.82      0.00
  TN343                0.41   1155.94     50.24      0.00
  TN344                0.27   1155.96     49.38      0.00
  TN345                0.41   1155.95     48.94      0.00
  IN346                0.00   1155.99     48.53      0.00
  TN347                0.27   1155.97     48.95      0.00
  TN348                0.07   1155.99     48.52      0.00
  TN349                0.34   1155.96     48.51      0.00
  IN350                0.00   1156.00     48.53      0.00
  TN351                0.34   1155.96     48.51      0.00
  IN352                0.00   1156.00     48.09      0.00
  TN353                0.14   1155.98     48.09      0.00
  TN354                0.14   1155.98     48.09      0.00
  IN355                0.00   1155.99     48.53      0.00
  TN356                0.14   1155.97     48.52      0.00
  TN357                0.07   1155.98     48.52      0.00
  IN358                0.00   1155.99     48.96      0.00
  TN359                0.07   1155.98     48.95      0.00
  TN360                0.07   1155.98     50.25      0.00
  IN361                0.00   1155.98     51.56      0.00
  TN362                0.07   1155.98     51.12      0.00
  TN363                0.14   1155.97     51.98      0.00
  IN364                0.00   1155.98     53.29      0.00
  TN365                0.34   1155.94     53.27      0.00
  TN366                0.14   1155.97     53.71      0.00
  IN367                0.00   1155.98     54.59      0.00
  TN368                0.14   1155.96     54.15      0.00
  TN369                0.07   1155.97     55.02      0.00
  IN370                0.00   1155.98     55.45      0.00
  TN371                0.21   1155.96     55.44      0.00
  TN372                0.41   1155.93     55.86      0.00
  IN373                0.00   1155.97     55.88      0.00
  TN374                0.14   1155.96     55.88      0.00
  TN375                0.41   1155.92     55.86      0.00
  TN379               10.31   1159.40     50.00      0.00
  TN381               10.31   1159.38     50.43      0.00
  TN383               10.31   1159.42     51.74      0.00
  TN385               10.31   1159.46     52.20      0.00
  TN387               10.31   1159.31     49.96      0.00
  TN389               10.31   1159.30     50.39      0.00
  TN391               10.31   1159.34     51.27      0.00
  TN393               10.31   1159.41     51.74      0.00
  TN395               12.03   1156.95     48.51      0.00
  TN397               12.03   1156.94     48.94      0.00
  TN399               12.03   1156.95     49.38      0.00
  TN401               12.03   1157.01     50.70      0.00
  TN403               12.03   1156.93     48.93      0.00
  TN405               12.03   1157.00     49.40      0.00
  TN407               12.03   1157.01     49.83      0.00
  TN409               12.03   1157.13     50.75      0.00
  TN411                0.07   1156.04     54.61      0.00
  IN412                0.00   1156.05     55.92      0.00
  TN413                0.27   1156.02     55.47      0.00
  IN414                0.00   1156.03     54.61      0.00
  TN415                0.21   1156.00     54.16      0.00
  TN416                0.07   1156.02     54.60      0.00
  IN417                0.00   1156.00     53.29      0.00
  TN418                0.27   1155.97     51.98      0.00
  TN420                0.14   1155.98     51.99      0.00
  TN422                0.34   1155.94     51.97      0.00
  IN423                0.00   1155.97     52.42      0.00
  TN424                0.14   1155.96     51.98      0.00
  TN426                0.41   1155.91     51.96      0.00
  IN427                0.00   1155.95     52.41      0.00
  TN428                0.27   1155.92     51.96      0.00
  TN430                0.14   1155.91     53.26      0.00
  IN431                0.00   1155.93     53.27      0.00
  TN432                0.27   1155.90     53.69      0.00
  TN434                0.41   1155.88     54.11      0.00
  IN435                0.00   1155.93     54.13      0.00
  TN436                0.21   1155.91     54.55      0.00
  TN438                0.34   1155.89     54.98      0.00
  TN440                0.07   1155.91     55.43      0.00
  IN441                0.00   1155.90     61.05      0.00
  TN442                0.21   1155.89     61.05      0.00
  TN444                0.34   1155.88     61.48      0.00
  TN446                0.07   1155.90     61.05      0.00
  IN447                0.00   1155.91     61.06      0.00
  TN448                0.34   1155.88     61.04      0.00
  IN449                0.00   1155.91     59.76      0.00
  TN450                0.34   1155.88     60.61      0.00
  TN452                0.14   1155.90     59.75      0.00
  TN454                0.41   1155.88     58.87      0.00
  IN455                0.00   1155.92     58.03      0.00
  TN456                0.21   1155.90     58.02      0.00
  IN457                0.00   1155.91     53.26      0.00
  TN458               55.00   1152.67     53.59      0.00
  TN459               27.50   1148.45     51.76      0.00
  TN460               27.50   1148.54     51.36      0.00
  IN461                0.00   1158.98     56.75      0.00
  TN462                0.07   1158.98     57.18      0.00
  IN463                0.00   1158.96     56.75      0.00
  TN464                0.04   1158.96     56.75      0.00
  TN466                0.21   1158.66     57.48      0.00
  IN467                0.00   1158.75     57.95      0.00
  TN468                0.21   1158.75     57.95      0.00
  TN469                0.21   1158.66     57.05      0.00
  TN470                0.21   1158.75     57.95      0.00
  TN472                0.27   1158.58     57.88      0.00
  TN474                0.21   1158.14     57.69      0.00
  TN476                0.34   1157.72     57.51      0.00
  TN478                0.27   1158.58     57.88      0.00
  TN479                0.21   1158.14     57.69      0.00
  TN480                0.34   1157.72     57.51      0.00
  TN482                0.21   1157.32     57.33      0.00
  TN484                0.34   1156.80     56.68      0.00
  IN485                0.00   1156.47     56.10      0.00
  TN486                0.27   1156.47     56.53      0.00
  TN488                0.21   1156.18     55.97      0.00
  IN489                0.00   1155.91     54.99      0.00
  TN490                0.14   1155.91     54.99      0.00
  TN492                0.03   1156.81     56.68      0.00
  TN494                0.06   1156.18     55.11      0.00
  TN496                0.21   1163.54     59.16      0.00
  TN498                0.14   1167.37     61.25      0.00
  TN499                0.34   1163.54     59.16      0.00
  TN501                0.14   1167.53     61.33      0.00
  IN502                0.00   1162.62     59.63      0.00
  TN503                7.78   1162.55     59.60      0.00
  IN504                0.00   1161.87     59.31      0.00
  TN505                0.41   1161.87     59.30      0.00
  TN507                0.07   1166.72     61.41      0.00
  IN508                0.00   1159.11     58.11      0.00
  TN509                0.21   1159.11     58.11      0.00
  IN510                0.00   1159.01     58.07      0.00
  TN511                0.04   1159.01     58.07      0.00
  IN512                0.00   1158.82     55.39      0.00
  TN513                0.03   1158.82     55.82      0.00
  TN514                0.03   1158.82     55.39      0.00
  TN516                0.03   1165.13     58.55      0.00
  TN518                0.04   1186.68     68.75      0.00
  TN520                0.41   1197.05     73.25      0.00
  TN522                0.07   1204.77     76.59      0.00
  TN524                0.21   1212.99     80.59      0.00
  TN526                0.21   1220.81     83.98      0.00
  TN528                0.41   1185.06     67.62      0.00
  TN530                0.07   1167.73     59.24      0.00
  TN532                0.41   1155.11     53.34      0.00
  TN534                0.14   1155.10     51.17      0.00
  TN536                0.14   1213.37     80.32      0.00
  TN537                0.07   1213.37     80.76      0.00
  TN539                0.21   1184.84     67.09      0.00
  TN540                0.41   1184.84     67.96      0.00
  TN542                0.34   1158.85     52.80      0.00
  TN543                0.27   1158.86     52.80      0.00
  TN545                0.27   1158.72     54.48      0.00
  TN547                0.41   1158.71     53.60      0.00
  TN549                0.07   1158.81     53.21      0.00
  TN551                0.07   1158.62     55.30      0.00
  TN552                0.14   1158.62     54.86      0.00
  TN554                0.21   1158.57     56.58      0.00
  TN555                0.21   1158.57     56.57      0.00
  TN557                0.27   1159.65     54.88      0.00
  TN559                0.34   1159.65     55.74      0.00
  TN561                0.07   1159.69     57.06      0.00
  TN562                0.34   1159.65     54.01      0.00
  TN564                0.14   1159.67     54.89      0.00
  TN565                0.07   1159.69     55.76      0.00
  TN566                0.21   1159.68     57.06      0.00
  TN568                0.34   1160.89     56.72      0.00
  TN569                0.41   1160.89     56.71      0.00
  TN571                0.34   1160.48     56.97      0.00
  TN573                0.14   1160.78     56.67      0.00
  TN575                0.21   1160.52     56.12      0.00
  TN577                0.27   1158.74     49.28      0.00
  TN579                0.27   1158.79     49.74      0.00
  TN581                0.27   1158.85     50.63      0.00
  TN583                0.41   1158.90     51.08      0.00
  TN585                0.34   1158.73     49.71      0.00
  TN587                0.21   1158.85     51.07      0.00
  TN589                0.07   1158.92     51.96      0.00
  TN591                0.21   1159.60     52.26      0.00
  TN593                0.14   1159.63     53.14      0.00
  TN595                0.41   1159.63     54.00      0.00
  TN596                0.34   1159.57     51.38      0.00
  TN598                0.27   1159.62     52.70      0.00
  TN599                0.14   1159.66     53.15      0.00
  TN601                0.07   1160.35     56.05      0.00
  TN603                0.41   1160.23     55.13      0.00
  TN605                0.21   1160.16     53.80      0.00
  TN607                0.14   1160.18     52.94      0.00
  TN609                0.41   1160.22     55.99      0.00
  TN610                0.41   1160.29     56.46      0.00
  TN612                0.07   1251.32     96.33      0.00
  TN614                0.27   1232.28     87.65      0.00
  TN616                0.21   1215.68     80.02      0.00
  TN618                0.21   1201.15     72.86      0.00
  TN620                0.34   1160.31     53.86      0.00
  TN622                0.41   1160.41     56.07      0.00
  TN624                0.07   1161.17     56.83      0.00
  TN626                0.21   1160.28     53.85      0.00
  TN628                0.21   1160.45     55.66      0.00
  TN630                0.27   1163.14     56.82      0.00
  TN632                0.07   1160.28     45.62      0.00
  TN634                0.41   1160.28     50.38      0.00
  TN636                0.34   1160.28     53.42      0.00
  TN638                0.34   1160.45     53.93      0.00
  TN640                0.07   1160.46     55.23      0.00
  TN642                0.41   1163.13     55.09      0.00
  TN644                0.21   1163.14     56.39      0.00
  TN646                0.34   1163.14     55.52      0.00
  TN648                0.07   1163.14     56.39      0.00
  TN650                0.21   1163.14     56.39      0.00
  TN652                0.07   1163.14     56.82      0.00
  TN654                0.34   1163.14     56.82      0.00
  TN656                0.41   1163.14     57.69      0.00
  TN658                0.34   1163.14     57.69      0.00
  VN659                0.00   1163.14     57.69      0.00
  TN660                0.41   1163.14     57.69      0.00
  TN662                0.21   1328.40    128.43      0.00
  TN664                0.34   1327.94    128.66      0.00
  VN665                0.00   1327.43    128.44      0.00
  TN666                0.21   1327.43    128.44      0.00
  TN668                0.27   1327.02    128.70      0.00
  TN670                0.21   1326.74    128.58      0.00
  TN672                0.14   1326.40    128.43      0.00
  TN674                0.27   1326.13    128.31      0.00
  TN676                0.14   1325.84    128.62      0.00
  TN678                0.21   1269.92    103.96      0.00
  TN679                0.27   1326.74    128.14      0.00
  TN681                0.34   1327.57    128.07      0.00
  TN683                0.27   1328.23    127.92      0.00
  TN685                5.56   1158.67     45.79      0.00
  TN687                4.17   1158.71     46.24      0.00
  TN689                0.34   1158.70     47.10      0.00
  TN691                0.14   1158.72     47.54      0.00
  TN693                0.27   1158.71     48.40      0.00
  TN695                0.27   1158.71     48.84      0.00
  TN697                0.07   1158.16     46.43      0.00
  TN699                0.27   1158.14     46.43      0.00
  TN701                0.21   1158.15     46.43      0.00
  TN703                0.21   1158.15     46.86      0.00
  TN705                0.34   1158.14     46.86      0.00
  TN707                0.27   1158.14     47.29      0.00
  TN709                0.34   1158.13     49.89      0.00
  TN711                0.21   1158.15     50.76      0.00
  TN713                0.27   1158.71     47.54      0.00
  TN715                0.41   1158.70     48.83      0.00
  TN717                0.21   1158.14     51.19      0.00
  TN719                0.07   1158.15     52.06      0.00
  TN721                0.21   1158.13     52.49      0.00
  TN723                0.14   1158.13     53.35      0.00
  TN725                0.27   1158.01     55.04      0.00
  IN726                0.00   1157.88     55.41      0.00
  TN727                0.41   1157.85     55.40      0.00
  TN729                0.41   1157.67     57.05      0.00
  TN731                0.27   1157.50     56.98      0.00
  TN733                0.21   1157.35     57.35      0.00
  TN735                0.41   1157.16     57.26      0.00
  TN737                0.41   1156.95     57.17      0.00
  TN739                0.41   1156.65     57.91      0.00
  TN741                0.07   1156.51     56.98      0.00
  TN743                0.21   1156.31     56.46      0.00
  TN745                0.27   1156.12     55.95      0.00
  TN747                0.07   1159.60     45.76      0.00
  TN749                0.07   1159.60     46.62      0.00
  TN751                0.07   1159.61     47.49      0.00
  TN753                0.14   1159.60     50.09      0.00
  TN755                0.07   1160.16     51.20      0.00
  TN757                0.27   1160.13     52.05      0.00
  TN759                0.07   1160.16     50.77      0.00
  TN761                0.14   1160.15     49.90      0.00
  TN763                0.41   1160.12     49.45      0.00
  TN765                0.34   1160.12     49.01      0.00
  TN767                0.41   1160.22     52.53      0.00
  TN769                0.07   1160.27     51.25      0.00
  TN771                0.41   1160.22     50.36      0.00
  TN773                0.27   1160.23     49.06      0.00
  TN775                0.21   1160.24     49.07      0.00
  TN777                0.34   1160.22     52.52      0.00
  TN779                0.14   1160.26     47.78      0.00
  TN781                0.21   1160.15     47.73      0.00
  TN783                0.14   1160.15     46.86      0.00
  TN785                0.34   1160.11     46.41      0.00
  TN787                0.27   1160.13     45.98      0.00
  TN789                0.07   1160.16     47.30      0.00
  TN791                0.07   1160.27     45.18      0.00
  TN793                0.27   1160.19     46.45      0.00
  TN795                0.41   1160.21     46.02      0.00
  TN797                0.21   1160.25     46.47      0.00
  TN799                0.07   1155.79     57.97      0.00
  TN801                0.41   1155.87     58.00      0.00
  TN802                0.07   1160.40     56.50      0.00
  TN804                0.41   1160.31     55.60      0.00
  TN805                0.21   1160.28     54.28      0.00
  TN807                0.27   1162.51     57.42      0.00
  TN808                0.41   1251.27     95.44      0.00
  TN810                0.34   1269.87    104.37      0.00
  TN812                0.41   1182.61     62.66      0.00
  TN814               10.31   1221.20     80.25      0.00
  TN816               12.38   1185.91     62.35      0.00
  VN817                0.00   1159.00     58.06      0.00
  VN818                0.00   1159.00     58.06      0.00
  VN819                0.00   1159.00     57.20      0.00
  VN820                0.00   1159.00     57.20      0.00
  VN822                0.00   1158.86     55.84      0.00
  VN823                0.00   1158.86     55.84      0.00
  IN824                0.00   1165.14     58.12      0.00
  IN825                0.00   1167.73     59.68      0.00
  VN826                0.00   1168.56     60.04      0.00
  VN827                0.00   1168.56     60.04      0.00
  IN828                0.00   1185.07     67.62      0.00
  VN829                0.00   1186.48     68.24      0.00
  VN830                0.00   1186.48     68.24      0.00
  IN831                0.00   1186.68     68.32      0.00
  IN832                0.00   1156.18     55.54      0.00
  VN833                0.00   1156.18     55.11      0.00
  VN834                0.00   1156.18     55.11      0.00
  IN835                0.00   1155.50     53.08      0.00
  VN836                0.00   1155.51     53.08      0.00
  VN837                0.00   1155.51     53.08      0.00
  VN838                0.00   1155.53     51.36      0.00
  VN839                0.00   1155.53     51.36      0.00
  IN840                0.00   1155.54     50.93      0.00
  VN841                0.00   1155.58     50.95      0.00
  VN842                0.00   1155.58     50.95      0.00
  VN843                0.00   1155.62     50.97      0.00
  VN844                0.00   1155.62     50.97      0.00
  IN845                0.00   1155.63     50.97      0.00
  VN846                0.00   1155.63     50.97      0.00
  VN847                0.00   1155.63     50.97      0.00
  IN848                0.00   1155.63     50.97      0.00
  IN849                0.00   1155.64     50.97      0.00
  VN850                0.00   1155.64     51.41      0.00
  VN851                0.00   1155.64     51.41      0.00
  IN852                0.00   1155.65     51.41      0.00
  IN853                0.00   1155.65     51.41      0.00
  VN854                0.00   1155.66     51.85      0.00
  VN855                0.00   1155.66     51.85      0.00
  VN856                0.00   1155.66     54.45      0.00
  VN857                0.00   1155.66     54.45      0.00
  IN858                0.00   1155.66     54.88      0.00
  IN859                0.00   1155.67     54.89      0.00
  VN860                0.00   1155.68     56.19      0.00
  VN861                0.00   1155.68     56.19      0.00
  IN862                0.00   1155.70     57.06      0.00
  VN863                0.00   1155.72     57.51      0.00
  IN864                0.00   1155.74     57.95      0.00
  IN865                0.00   1155.75     58.82      0.00
  VN866                0.00   1155.75     58.82      0.00
  VN867                0.00   1155.72     57.51      0.00
  VN868                0.00   1155.63     50.97      0.00
  IN869                0.00   1155.09     51.17      0.00
  VN870                0.00   1155.10     51.61      0.00
  VN871                0.00   1155.10     51.61      0.00
  IN872                0.00   1155.10     51.61      0.00
  VN873                0.00   1155.10     52.91      0.00
  VN874                0.00   1155.10     52.91      0.00
  IN875                0.00   1155.11     53.34      0.00
  IN876                0.00   1193.63     71.77      0.00
  IN877                0.00   1197.05     73.25      0.00
  IN878                0.00   1204.77     76.59      0.00
  VN879                0.00   1206.62     77.40      0.00
  VN880                0.00   1206.62     77.40      0.00
  IN881                0.00   1212.99     80.16      0.00
  IN882                0.00   1218.25     82.87      0.00
  IN883                0.00   1220.81     83.98      0.00
  VN884                0.00   1223.35     85.08      0.00
  VN885                0.00   1223.35     85.08      0.00
  IN886                0.00   1225.62     86.06      0.00
  IN887                0.00   1223.46     85.13      0.00
  VN888                0.00   1219.66     83.48      0.00
  VN889                0.00   1219.66     83.48      0.00
  IN890                0.00   1213.38     80.32      0.00
  IN891                0.00   1184.84     67.09      0.00
  IN892                0.00   1160.93     56.73      0.00
  IN893                0.00   1159.70     57.07      0.00
  VN894                0.00   1163.22     59.02      0.00
  VN895                0.00   1163.22     59.02      0.00
  IN896                0.00   1163.54     59.16      0.00
  IN897                0.00   1167.37     61.26      0.00
  IN898                0.00   1167.53     61.33      0.00
  IN901                0.00   1168.80     62.31      0.00
  VN902                0.00   1167.85     61.90      0.00
  VN903                0.00   1167.85     61.90      0.00
  IN904                0.00   1166.72     61.41      0.00
  VN905                0.00   1160.76     58.83      0.00
  VN906                0.00   1160.76     58.83      0.00
  VN907                0.00   1156.81     56.68      0.00
  IN908                0.00   1157.32     57.33      0.00
[...]
  IN1519               0.00   1148.53     54.39    921.91
  HY46                 0.00   1148.85     48.46      0.00
  HY47                 0.00   1148.85     47.60      0.00
  HY48                 0.00   1148.85     43.26      0.00
  HY49                 0.00   1148.85     48.03      0.00
  HY50                 0.00   1148.85     51.50      0.00
  HY51                 0.00   1147.61     51.39      0.00
  HY52                 0.00   1147.61     50.09      0.00
  HY53                 0.00   1143.59     44.89      0.00
  HY54                 0.00   1146.46     46.56      0.00
  HY55                 0.00   1147.40     53.47      0.00
  HY56                 0.00   1146.84     52.36      0.00
  HY57                 0.00   1146.70     48.40      0.00
  HY58                 0.00   1148.85     40.66      0.00
  HY59                 0.00   1148.85     41.10      0.00
  HY60                 0.00   1148.85     44.13      0.00
  HY61                 0.00   1148.85     47.60      0.00
  HY62                 0.00   1148.85     47.60      0.00
  HY63                 0.00   1148.77     52.33      0.00
  HY64                 0.00   1150.03     48.98      0.00
  HY65                 0.00   1148.82     50.62      0.00
  HY66                 0.00   1148.21     51.22      0.00
  HY67                 0.00   1146.67     44.49      0.00
  IN1520               0.00   1146.44     45.04     17.73
  HY68                 0.00   1146.44     45.04      0.00
  IN1521               0.00   1148.48     55.24    849.09
  HY69                 0.00   1148.48     55.24      0.00
  IN1522               0.00   1075.00     17.33      0.00
  TN1523               0.22   1148.87     41.54      0.00
  TN1525               0.22   1148.86     53.67      0.00
  TN1524               0.22   1148.20     52.52      0.00
  TN1526               1.71   1148.87     50.21      0.00
  TN1527               0.38   1148.64     51.41      0.00
  TN1528               0.19   1148.25     51.24      0.00
  TN1529               0.28   1147.82     50.62      0.00
  IN1530               0.00   1148.64     51.41      0.00
  IN1531               0.00   1148.25     51.24      0.00
  IN1532               0.00   1147.82     51.05      0.00
  TN1533              10.41   1148.55     53.53  10473.42
  IN1534               0.00   1149.23     51.66    199.59
  IN1535               0.00   1149.13     51.62     29.50
  IN1536               0.00   1149.12     51.18    971.07
  IN1537               0.00   1149.02     49.40   1644.49
  IN1538               0.00   1148.90     48.92   2459.05
  IN1539               0.00   1148.90     48.49   5228.96
  IN1540               0.00   1148.90     48.92      0.40
  IN1541               0.00   1148.84     49.76      0.04
  IN1542               0.00   1148.79     50.17      0.00
  IN1543               0.00   1148.79     51.91      0.00
  IN1544               0.00   1148.76     54.06      0.00
  IN1545               0.00   1148.73     55.78      0.00
  IN1546               0.00   1148.70     57.50      0.00
  IN1547               0.00   1148.70     57.93      0.00
  IN1548               0.00   1148.70     57.93   2073.42
  IN1549               0.00   1148.06     55.49    727.61
  IN1550               0.00   1148.58     56.15   2467.78
  IN1551               0.00   1148.28     54.72   1496.96
  IN1552               0.00   1147.77     55.36    899.39
  TN1553               0.47   1149.05     51.15   1317.10
  TN1554               0.47   1149.07     50.72    793.70
  TN1555               0.38   1149.07     51.59   1644.49
  TN1556               0.09   1149.11     50.74   4970.55
  TN1557               0.19   1149.00     49.40   2634.45
  TN1558               0.19   1148.99     48.96   3027.95
  TN1559               0.09   1149.01     49.83   8190.55
  TN1560               0.28   1148.98     49.39   2285.58
  TN1561               0.09   1148.89     48.48   5635.99
  TN1562               0.09   1148.89     48.48   5635.99
  TN1563               0.38   1148.86     48.90   4636.78
  TN1564               0.19   1148.87     48.48   8118.17
  TN1565               0.57   1148.84     48.46   3655.52
  TN1566               0.38   1148.86     48.47   2427.76
  TN1567               0.47   1148.85     48.90   3655.52
  TN1568               0.19   1148.88     48.48   3058.95
  TN1569               0.57   1148.83     48.89      0.25
  TN1570               0.19   1148.88     48.91      0.00
  TN1571               0.38   1148.86     48.47      0.18
  TN1572               0.57   1148.83     49.32      0.25
  TN1573               0.19   1148.81     49.31      0.00
  TN1574               0.28   1148.81     49.31      0.00
  TN1575               0.19   1148.82     49.32      0.00
  TN1576               0.38   1148.80     49.74      0.00
  TN1577               0.28   1148.76     50.16      0.00
  TN1578               0.09   1148.78     50.60      0.00
  TN1579               0.57   1148.73     50.58      0.00
  TN1580               0.28   1148.76     51.03      0.00
  TN1581               0.47   1148.74     51.01      0.00
  TN1582               0.38   1148.75     52.75      0.00
  TN1583               0.47   1148.74     51.88      0.00
  TN1584               0.09   1148.78     52.33      0.00
  TN1585               0.47   1148.70     53.60      0.00
  TN1586               0.38   1148.71     54.04      0.00
  TN1587               0.28   1148.73     54.05      0.00
  TN1588               0.57   1148.66     54.88      0.00
  TN1589               0.57   1148.65     54.88      0.00
  TN1590               0.19   1148.70     55.77      0.00
  TN1591               0.19   1148.71     55.77      0.00
  TN1592               0.47   1148.65     57.04      0.00
  TN1593               0.38   1148.66     56.61      0.00
  TN1594               0.19   1148.68     57.49      0.00
  TN1595               0.47   1148.66     57.48      0.00
  TN1596               0.09   1148.69     57.49      0.00
  TN1597               0.38   1148.66     57.48      0.00
  TN1598               0.38   1148.66     57.91      0.00
  TN1599               0.28   1148.68     57.92      0.00
  TN1600               0.47   1148.63     57.90      0.00
  IN1602               0.00   1149.19     49.05   1302.50
  IN1603               0.00   1149.19     48.61   5966.66
  IN1604               0.00   1148.98     47.66   8719.61
  IN1605               0.00   1148.85     48.03  10767.09
  IN1601               0.00   1149.32     50.83    448.48
  IN1606               0.00   1148.80     48.01   8440.51
  IN1607               0.00   1148.78     48.00  25644.09
  IN1608               0.00   1148.74     48.42  10988.61
  IN1609               0.00   1148.71     49.27      4.50
  IN1610               0.00   1148.68     50.12     19.26
  IN1611               0.00   1148.65     53.14      3.79
  IN1612               0.00   1148.65     54.01      0.00
  IN1613               0.00   1148.62     55.30      0.35
  IN1614               0.00   1148.60     55.72    565.34
  IN1615               0.00   1148.59     56.15   2361.34
  TN1616               0.28   1149.19     50.35      0.00
  TN1617               0.09   1149.19     49.05      0.00
  TN1618               0.28   1149.19     48.61      5.83
  TN1619               0.47   1149.19     48.61      0.00
  TN1620               0.09   1148.98     48.09      0.00
  TN1621               0.47   1148.98     48.09      0.00
  TN1622               0.38   1148.85     48.03     10.69
  TN1623               0.47   1148.78     48.00     10.69
  TN1624               0.09   1148.78     48.00      0.00
  TN1625               0.28   1148.74     48.42      0.00
  TN1626               0.09   1148.74     48.42      0.00
  TN1627               0.19   1148.71     48.84      0.00
  TN1628               0.47   1148.71     49.27      0.00
  TN1629               0.09   1148.68     49.69      0.00
  TN1630               0.47   1148.68     50.12      0.01
  TN1631               0.19   1148.65     52.71      0.36
  TN1632               0.38   1148.65     53.58      0.01
  TN1633               0.28   1148.65     54.01   1040.99
  TN1634               0.47   1148.65     54.44      0.01
  TN1635               0.09   1148.62     55.30      0.00
  TN1636               0.19   1148.62     55.73      0.00
  TN1637               0.09   1148.60     56.16      0.00
  TN1638               0.19   1148.60     56.16  16653.23
  TN1639               0.09   1148.59     56.15      0.00
  IN1640               0.00   1148.78     47.14  23604.48
  IN1641               0.00   1148.71     47.10  30040.89
  IN1642               0.00   1148.58     47.91  35203.92
  IN1643               0.00   1148.58     49.65     10.72
  IN1644               0.00   1148.48     50.90     15.72
  IN1645               0.00   1148.46     52.20     54.63
  IN1646               0.00   1148.45     53.49     81.84
  IN1647               0.00   1148.35     54.75     93.57
  IN1648               0.00   1148.34     54.31     42.70
  TN1649               0.28   1148.71     47.10    223.39
  TN1650               0.28   1148.71     47.54     16.77
  TN1651               0.57   1148.58     47.48    107.03
  TN1652               0.19   1148.58     47.91  81272.18
  TN1653               0.47   1148.58     48.35     11.67
  TN1654               0.57   1148.58     49.65    105.34
  TN1655               0.57   1148.48     50.47    104.66
  TN1656               0.09   1148.48     50.90      0.00
  TN1657               0.38   1148.46     52.20     65.94
  TN1658               0.38   1148.46     52.63      7.56
  TN1659               0.47   1148.45     53.49    103.10
  TN1660               0.57   1148.45     53.92    107.05
  TN1661               0.09   1148.35     54.32      0.00
  TN1662               0.09   1148.35     54.75      0.00
  TN1663               0.09   1148.34     55.18      0.00
  TN1664               0.57   1148.34     55.18     46.45
  IN1665               0.00   1147.53     46.16   5666.62
  IN1666               0.00   1146.08     45.53    191.80
  IN1667               0.00   1147.13     54.22    340.87
  IN1668               0.00   1146.65     43.61    305.96
  IN1669               0.00   1146.76     51.46     56.06
  IN1670               0.00   1147.53     46.16      0.00
  IN1671               0.00   1147.55     46.60      0.03
  IN1672               0.00   1147.57     47.48     12.45
  IN1673               0.00   1147.60     48.35      0.71
  IN1674               0.00   1147.63     49.67      0.44
  IN1675               0.00   1147.66     52.72      0.92
  IN1676               0.00   1147.69     54.03      3.45
  IN1677               0.00   1147.73     54.48     29.65
  IN1678               0.00   1147.74     54.92    311.32
  IN1679               0.00   1147.75     55.35    899.39
  IN1680               0.00   1146.14     45.56    161.16
  IN1681               0.00   1146.25     46.04     10.21
  IN1682               0.00   1146.25     46.47      6.25
  IN1683               0.00   1146.38     47.83      0.82
  IN1684               0.00   1146.53     50.06      7.26
  IN1685               0.00   1146.68     51.86     35.57
  IN1686               0.00   1146.85     53.23    114.33
  IN1687               0.00   1147.04     53.75    250.18
  IN1688               0.00   1146.46     45.26     13.77
  IN1689               0.00   1146.46     45.70    443.94
  IN1690               0.00   1146.52     47.02  10898.77
  IN1691               0.00   1146.52     48.32     20.78
  IN1692               0.00   1146.58     49.65      3.37
  IN1693               0.00   1146.65     50.98      0.43
  IN1694               0.00   1146.74     51.88      0.23
  IN1695               0.00   1146.84     52.36      0.25
  IN1696               0.00   1146.65     44.04    774.02
  IN1697               0.00   1146.65     44.48    895.31
  IN1698               0.00   1146.66     46.22      0.71
  IN1699               0.00   1146.67     47.52   1913.43
  IN1700               0.00   1146.67     49.25      1.65
  IN1701               0.00   1146.69     50.13      0.24
  IN1702               0.00   1146.71     51.44      1.08
  IN1703               0.00   1146.74     51.45     33.38
  TN1704               0.19   1147.51     46.15      0.00
  TN1705               0.28   1147.50     46.15      0.00
  TN1706               0.57   1147.49     46.14      0.00
  TN1707               0.19   1147.51     46.15      0.00
  TN1708               0.28   1147.51     46.59      0.04
  TN1709               0.28   1147.52     46.59      6.43
  TN1710               0.47   1147.50     46.58      1.36
  TN1711               0.19   1147.53     46.59      0.04
  TN1712               0.47   1147.51     47.02      6.80
  TN1713               0.38   1147.53     47.46     10.13
  TN1715               0.28   1147.54     47.47      8.22
  TN1714               0.57   1147.52     47.46     10.61
  TN1716               0.19   1147.58     47.91      0.71
  TN1717               0.28   1147.57     48.78      0.71
  TN1719               0.19   1147.58     48.78      0.71
  TN1718               0.28   1147.57     48.35      0.54
  TN1720               0.47   1147.58     49.22      0.49
  TN1721               0.57   1147.57     50.08      0.49
  TN1722               0.19   1147.61     49.23      0.43
  TN1723               0.38   1147.59     52.25      0.55
  TN1726               0.38   1147.64     52.71      1.04
  TN1724               0.38   1147.62     50.97      1.05
  TN1725               0.47   1147.62     53.13      1.04
  TN1727               0.47   1147.65     53.58      3.88
  TN1728               0.19   1147.68     53.59      1.96
  TN1729               0.38   1147.66     54.01      3.88
  TN1732               0.57   1147.70     54.47     29.65
  TN1730               0.57   1147.68     54.46     29.65
  TN1731               0.38   1147.70     54.90     29.65
  TN1734               0.38   1147.71     54.90    311.32
  TN1735               0.28   1147.71     55.34    272.58
  TN1733               0.38   1147.71     54.90    311.32
  TN1738               0.57   1147.72     55.34    899.39
  TN1736               0.38   1147.71     55.34    899.39
  TN1737               0.47   1147.70     55.33    899.39
  TN1739               0.38   1146.11     45.55    136.11
  TN1740               0.19   1146.12     45.55    160.21
  TN1741               0.47   1146.11     45.54    136.11
  TN1742               0.38   1146.11     45.54    136.11
  TN1743               0.19   1146.23     46.03     10.21
  TN1744               0.09   1146.24     46.47      3.17
  TN1745               0.19   1146.23     46.03     10.21
  TN1746               0.57   1146.21     46.02      7.86
  TN1747               0.38   1146.22     46.46      4.83
  TN1748               0.28   1146.22     46.89      1.73
  TN1749               0.47   1146.21     46.46      4.83
  TN1750               0.57   1146.20     46.88      4.83
  TN1751               0.19   1146.36     47.39      0.82
  TN1752               0.19   1146.36     47.82      0.81
  TN1753               0.09   1146.37     47.82      0.56
  TN1754               0.57   1146.33     48.24      1.10
  TN1755               0.47   1146.49     50.04     16.30
  TN1756               0.47   1146.50     50.48     16.30
  TN1757               0.57   1146.49     49.17     16.30
  TN1758               0.57   1146.49     50.48     16.30
  TN1759               0.47   1146.65     51.41     59.79
  TN1760               0.57   1146.65     51.84     59.79
  TN1761               0.09   1146.67     51.85     23.87
  TN1762               0.19   1146.67     52.28     35.57
  TN1763               0.19   1146.84     52.79    114.33
  TN1764               0.38   1146.82     53.65    174.62
  TN1765               0.57   1146.81     53.21    174.62
  TN1766               0.09   1146.85     53.66    115.76
  TN1767               0.19   1147.03     53.74    250.18
  TN1768               0.57   1146.98     54.59    286.42
  TN1769               0.09   1147.03     54.18    162.39
  TN1770               0.47   1147.00     54.59    286.42
  TN1771               0.47   1146.46     45.26   3046.30
  TN1772               0.09   1146.46     45.26      0.00
  TN1773               0.38   1146.46     45.26     10.74
  TN1774               0.09   1146.46     45.70      0.00
  TN1775               0.38   1146.46     45.26    729.12
  TN1776               0.57   1146.46     45.70    924.99
  TN1777               0.57   1146.46     45.70    623.57
  TN1778               0.19   1146.46     45.70      0.00
  TN1779               0.38   1146.52     46.59  12934.16
  TN1780               0.28   1146.52     47.02      0.00
  TN1781               0.38   1146.52     46.15  38691.78
  TN1782               0.28   1146.52     47.02   7410.96
  TN1783               0.09   1146.52     47.89      0.00
  TN1784               0.38   1146.52     48.32   1261.29
  TN1785               0.19   1146.52     47.89  40759.27
  TN1786               0.19   1146.52     48.32  38909.88
  TN1789               0.47   1146.58     49.21     41.20
  TN1790               0.47   1146.58     50.08    108.23
  TN1787               0.19   1146.58     49.21   6457.25
  TN1788               0.57   1146.58     49.65     40.55
  TN1791               0.38   1146.65     50.55    172.44
  TN1792               0.19   1146.65     50.98  58216.29
  TN1793               0.47   1146.65     50.98     41.09
  TN1794               0.57   1146.65     50.98     41.45
  TN1795               0.38   1146.74     51.45    105.06
  TN1796               0.19   1146.74     51.88    445.24
  TN1797               0.19   1146.74     51.88  58428.07
  TN1798               0.38   1146.74     52.32    482.34
  TN1799               0.38   1146.84     52.36    541.17
  TN1800               0.57   1146.84     52.36     44.80
  TN1801               0.19   1146.84     52.79   8971.27
  TN1802               0.57   1146.84     52.79     46.47
  TN1805               0.47   1146.65     44.04   1980.63
  TN1803               0.19   1146.65     44.04      0.00
  TN1804               0.19   1146.65     44.04      0.00
  TN1806               0.38   1146.65     44.04  46412.93
  TN1807               0.19   1146.65     44.04      0.00
  TN1808               0.09   1146.65     44.48      0.00
  TN1809               0.57   1146.65     44.48      0.00
  TN1810               0.09   1146.65     45.34      0.00
  TN1811               0.09   1146.66     45.78      0.00
  TN1812               0.09   1146.66     45.78      0.00
  TN1813               0.38   1146.66     45.78      0.00
  TN1814               0.28   1146.66     46.65      0.00
  TN1815               0.09   1146.67     47.09      0.00
  TN1816               0.19   1146.67     47.95      0.00
  TN1817               0.09   1146.67     47.09      0.00
  TN1818               0.09   1146.67     47.95      0.00
  TN1819               0.47   1146.67     48.82     93.53
  TN1820               0.19   1146.67     49.25  34214.55
  TN1821               0.19   1146.67     48.82  35153.89
  TN1822               0.57   1146.67     49.25     40.90
  TN1823               0.19   1146.69     50.13  12518.42
  TN1824               0.09   1146.69     50.56      0.00
  TN1825               0.38   1146.69     50.13   1035.31
  TN1826               0.19   1146.69     50.56      0.00
  TN1827               0.28   1146.71     51.00    261.33
  TN1828               0.57   1146.71     51.44    124.83
  TN1829               0.38   1146.71     51.00    259.25
  TN1830               0.19   1146.71     51.44      0.00
  TN1831               0.19   1146.74     51.45  12584.63
  TN1832               0.57   1146.74     51.45     40.53
  TN1833               0.38   1146.74     51.45    126.02
  TN1834               0.57   1146.74     51.45     40.89
  Aquifer              0.00    930.00      0.00      0.00  Reservoir
  SurfaceResrvr        0.00   1030.00      0.00      0.00  Reservoir
  Tank              -824.87   1150.15     47.73   1835.65  Tank
   
  Analysis ended Mon Oct 24 10:26:12 2022
